
**** 06/02/24 13:27:58 ***** PSpice 23.1.0 (17 April 2024) **** ID# 0 ********

 ** Profile: "SCHEMATIC1-temp"  [ d:\faculta\anu ii\sem 2\cad\cdssetup\workspace\projects\final_version\final_version-PSpiceFiles\SCH


 ****     CIRCUIT DESCRIPTION


******************************************************************************




** Creating circuit file "temp.cir" 
** WARNING: THIS AUTOMATICALLY GENERATED FILE MAY BE OVERWRITTEN BY SUBSEQUENT SIMULATIONS

*Libraries: 
* Profile Libraries :
* Local Libraries :
* From [PSPICE NETLIST] section of D:\FACULTA\ANU II\Sem 2\CAD\cdssetup\OrCAD_PSpice\23.1.0\PSpice.ini file:
.lib "nom.lib" 

*Analysis directives: 
.DC LIN PARAM r 380k 120k -1k 
.TEMP -10 -5 0 5 10 15 20 25 30 35 40 45 50
.OPTIONS ADVCONV
.PROBE64 V(alias(*)) I(alias(*)) W(alias(*)) D(alias(*)) NOISE(alias(*)) 
.INC "..\SCHEMATIC1.net" 



**** INCLUDING SCHEMATIC1.net ****
* source FINAL_VERSION
V_V1         VCC 0 10V
R_R4         VOUT1 N00531 R_R4 1k TC=0,0 
.model        R_R4 RES R=1 DEV=1% TC1=0 TC2=0
X_U2         N00621 N00531 VCC 0 VOUT2 AD8614/AD
R_R6         N07424 N00621 R_R6 0.75k TC=0,0 
.model        R_R6 RES R=1 DEV=1% TC1=0 TC2=0
X_U1         N05879 N05749 VCC 0 VOUT1 AD8614/AD
R_Rsensor         N05749 VOUT1  {r} TC=0,0 
R_R1         VCC N05749 R_R1 730k TC=0,0 
.model        R_R1 RES R=1 DEV=1% TC1=0 TC2=0
R_R2         VCC N05879 R_R2 730k TC=0,0 
.model        R_R2 RES R=1 DEV=1% TC1=0 TC2=0
R_R3         0 N05879 R_R3 730k TC=0,0 
.model        R_R3 RES R=1 DEV=1% TC1=0 TC2=0
R_R5         VOUT2 N00531 R_R5 3.3k TC=0,0 
.model        R_R5 RES R=1 DEV=1% TC1=0 TC2=0
R_R7         N07424 VCC R_R7 6.34k TC=0,0 
.model        R_R7 RES R=1 DEV=1% TC1=0 TC2=0
R_Rref         0 N07424 R_Rref 3.65k TC=0,0 
.model        R_Rref RES R=1 DEV=1% TC1=0 TC2=0
R_R8         VOUT2 N09831 R_R8 1.5k TC=0,0 
.model        R_R8 RES R=1 DEV=1% TC1=0 TC2=0
R_R9         N09831 VOUT3 R_R9 10k TC=0,0 
.model        R_R9 RES R=1 DEV=1% TC1=0 TC2=0
X_U3         N09831 N09890 VCC 0 VOUT3 AD8614/AD
D_D1         N13621 0 LO_3336-TYP 
R_Rled         N13621 VOUT3 R_Rled 400 TC=0,0 
.model        R_Rled RES R=1 DEV=1% TC1=0 TC2=0
R_R10         VCC N09890 R_R10 6k TC=0,0 
.model        R_R10 RES R=1 DEV=1% TC1=0 TC2=0
R_Rref2         N09890 0 R_Rref2 4k TC=0,0 
.model        R_Rref2 RES R=1 DEV=1% TC1=0 TC2=0
R_R11         0 N14030 R_R11 400 TC=0,0 
.model        R_R11 RES R=1 DEV=1% TC1=0 TC2=0
Q_Q1         VCC VOUT3 N14030 Q2N2222A/ZTX 
.PARAM  x=0 sensor={-260k*abs(x)+380k} r=380k humidity={(380k-r)*45/260k+5}

**** RESUMING temp.cir ****
.END

**** 06/02/24 13:27:58 ***** PSpice 23.1.0 (17 April 2024) **** ID# 0 ********

 ** Profile: "SCHEMATIC1-temp"  [ d:\faculta\anu ii\sem 2\cad\cdssetup\workspace\projects\final_version\final_version-PSpiceFiles\SCH


 ****     Diode MODEL PARAMETERS


******************************************************************************




               LO_3336-TYP     X_U2.DX         X_U1.DX         X_U3.DX         
          IS  980.130000E-24  100.000000E-18  100.000000E-18  100.000000E-18 
           N    1.6749                                                       
         IKF    7.140200E-03                                                 
          RS    1.6217          5               5               5            


**** 06/02/24 13:27:58 ***** PSpice 23.1.0 (17 April 2024) **** ID# 0 ********

 ** Profile: "SCHEMATIC1-temp"  [ d:\faculta\anu ii\sem 2\cad\cdssetup\workspace\projects\final_version\final_version-PSpiceFiles\SCH


 ****     BJT MODEL PARAMETERS


******************************************************************************




               Q2N2222A/ZTX    X_U2.NIX        X_U2.PIX        X_U2.POUT       
               NPN             NPN             PNP             PNP             
       LEVEL    1               1               1               1            
          IS   30.611000E-15  100.000000E-18  100.000000E-18  100.000000E-18 
          BF  220             220             220             100            
          NF    1.00124         1               1               1            
         VAF  104             130             130             200            
         IKF     .52                                                         
         ISE    7.500000E-15                                                 
          NE    1.41                                                         
          BR    4               1               1               1            
          NR    1.005           1               1               1            
         VAR   28                                                            
         IKR     .24                                                         
         ISC   10.652500E-12                                                 
          NC    1.3728                                                       
         ISS    0               0               0               0            
          RB     .13                                                         
          RE     .22            0               0               0            
          RC     .12            0               0               4            
         CJE   27.010000E-12    0               0               0            
         VJE     .75             .75             .75             .75         
         CJC    9.120000E-12    0               0               0            
         VJC     .4089           .75             .75             .75         
         MJC     .3508           .33             .33             .33         
        XCJC    1               1               1               1            
         CJS    0               0               0               0            
         VJS     .75             .75             .75             .75         
          TF  325.000000E-12                                                 
          TR  100.000000E-09                                                 
          KF    0              25.000000E-15   25.000000E-15    0            
          AF    1               1               1               1            
          CN    2.42            2.42            2.2             2.2          
           D     .87             .87             .52             .52         


               X_U2.NOUT       X_U1.NIX        X_U1.PIX        X_U1.POUT       
               NPN             NPN             PNP             PNP             
       LEVEL    1               1               1               1            
          IS  100.000000E-18  100.000000E-18  100.000000E-18  100.000000E-18 
          BF  100             220             220             100            
          NF    1               1               1               1            
         VAF  200             130             130             200            
          BR    1               1               1               1            
          NR    1               1               1               1            
         ISS    0               0               0               0            
          RE    0               0               0               0            
          RC    4               0               0               4            
         CJE    0               0               0               0            
         VJE     .75             .75             .75             .75         
         CJC    0               0               0               0            
         VJC     .75             .75             .75             .75         
         MJC     .33             .33             .33             .33         
        XCJC    1               1               1               1            
         CJS    0               0               0               0            
         VJS     .75             .75             .75             .75         
          KF    0              25.000000E-15   25.000000E-15    0            
          AF    1               1               1               1            
          CN    2.42            2.42            2.2             2.2          
           D     .87             .87             .52             .52         


               X_U1.NOUT       X_U3.NIX        X_U3.PIX        X_U3.POUT       
               NPN             NPN             PNP             PNP             
       LEVEL    1               1               1               1            
          IS  100.000000E-18  100.000000E-18  100.000000E-18  100.000000E-18 
          BF  100             220             220             100            
          NF    1               1               1               1            
         VAF  200             130             130             200            
          BR    1               1               1               1            
          NR    1               1               1               1            
         ISS    0               0               0               0            
          RE    0               0               0               0            
          RC    4               0               0               4            
         CJE    0               0               0               0            
         VJE     .75             .75             .75             .75         
         CJC    0               0               0               0            
         VJC     .75             .75             .75             .75         
         MJC     .33             .33             .33             .33         
        XCJC    1               1               1               1            
         CJS    0               0               0               0            
         VJS     .75             .75             .75             .75         
          KF    0              25.000000E-15   25.000000E-15    0            
          AF    1               1               1               1            
          CN    2.42            2.42            2.2             2.2          
           D     .87             .87             .52             .52         


               X_U3.NOUT       
               NPN             
       LEVEL    1            
          IS  100.000000E-18 
          BF  100            
          NF    1            
         VAF  200            
          BR    1            
          NR    1            
         ISS    0            
          RE    0            
          RC    4            
         CJE    0            
         VJE     .75         
         CJC    0            
         VJC     .75         
         MJC     .33         
        XCJC    1            
         CJS    0            
         VJS     .75         
          KF    0            
          AF    1            
          CN    2.42         
           D     .87         


**** 06/02/24 13:27:58 ***** PSpice 23.1.0 (17 April 2024) **** ID# 0 ********

 ** Profile: "SCHEMATIC1-temp"  [ d:\faculta\anu ii\sem 2\cad\cdssetup\workspace\projects\final_version\final_version-PSpiceFiles\SCH


 ****     Resistor MODEL PARAMETERS


******************************************************************************




               R_R4            R_R6            R_R1            R_R2            
           R    1               1               1               1            


               R_R3            R_R5            R_R7            R_Rref          
           R    1               1               1               1            


               R_R8            R_R9            R_Rled          R_R10           
           R    1               1               1               1            


               R_Rref2         R_R11           
           R    1               1            


**** 06/02/24 13:27:58 ***** PSpice 23.1.0 (17 April 2024) **** ID# 0 ********

 ** Profile: "SCHEMATIC1-temp"  [ d:\faculta\anu ii\sem 2\cad\cdssetup\workspace\projects\final_version\final_version-PSpiceFiles\SCH


 ****     TEMPERATURE-ADJUSTED VALUES      TEMPERATURE =  -10.000 DEG C


******************************************************************************




 **** DIODE MODEL PARAMETERS

                 LO_3336-TYP      X_U2.DX        X_U1.DX    

         IS        2.110E-23      1.614E-19      1.614E-19  
         VJ        1.033E+00      1.033E+00      1.033E+00  
        CJO        0.000E+00      0.000E+00      0.000E+00  
         RS        1.622E+00      5.000E+00      5.000E+00  
        IKF        7.140E-03      0.000E+00      0.000E+00  
         BV                   

                   X_U3.DX                                  

         IS        1.614E-19  
         VJ        1.033E+00  
        CJO        0.000E+00  
         RS        5.000E+00  
        IKF        0.000E+00  
         BV                   


 **** BJT MODEL PARAMETERS

                Q2N2222A/ZTX     X_U2.PIX       X_U2.NIX    

         BF        2.200E+02      2.200E+02      2.200E+02  
        ISE        7.850E-17      0.000E+00      0.000E+00  
        VJE        8.134E-01      8.134E-01      8.134E-01  
        CJE        2.612E-11      0.000E+00      0.000E+00  
         RE        2.200E-01      0.000E+00      0.000E+00  
         RB        1.300E-01      0.000E+00      0.000E+00  
         BR        4.000E+00      1.000E+00      1.000E+00  
        ISC        9.854E-14      0.000E+00      0.000E+00  
        VJC        5.144E-01      8.134E-01      8.134E-01  
        CJC        8.248E-12      0.000E+00      0.000E+00  
         RC        1.200E-01      0.000E+00      0.000E+00  
        RBM        1.300E-01      0.000E+00      0.000E+00  
         IS        4.941E-17      1.614E-19      1.614E-19  
        ISS        0.000E+00      0.000E+00      0.000E+00  
        VJS        8.134E-01      8.134E-01      8.134E-01  
        CJS        0.000E+00      0.000E+00      0.000E+00  
      GAMMA        1.000E-11      1.000E-11      1.000E-11  
        RCO        0.000E+00      0.000E+00      0.000E+00  
         VO        1.000E+01      1.000E+01      1.000E+01  

                  X_U2.POUT      X_U2.NOUT      X_U1.PIX    

         BF        1.000E+02      1.000E+02      2.200E+02  
        ISE        0.000E+00      0.000E+00      0.000E+00  
        VJE        8.134E-01      8.134E-01      8.134E-01  
        CJE        0.000E+00      0.000E+00      0.000E+00  
         RE        0.000E+00      0.000E+00      0.000E+00  
         RB        0.000E+00      0.000E+00      0.000E+00  
         BR        1.000E+00      1.000E+00      1.000E+00  
        ISC        0.000E+00      0.000E+00      0.000E+00  
        VJC        8.134E-01      8.134E-01      8.134E-01  
        CJC        0.000E+00      0.000E+00      0.000E+00  
         RC        4.000E+00      4.000E+00      0.000E+00  
        RBM        0.000E+00      0.000E+00      0.000E+00  
         IS        1.614E-19      1.614E-19      1.614E-19  
        ISS        0.000E+00      0.000E+00      0.000E+00  
        VJS        8.134E-01      8.134E-01      8.134E-01  
        CJS        0.000E+00      0.000E+00      0.000E+00  
      GAMMA        1.000E-11      1.000E-11      1.000E-11  
        RCO        0.000E+00      0.000E+00      0.000E+00  
         VO        1.000E+01      1.000E+01      1.000E+01  

                  X_U1.NIX       X_U1.POUT      X_U1.NOUT   

         BF        2.200E+02      1.000E+02      1.000E+02  
        ISE        0.000E+00      0.000E+00      0.000E+00  
        VJE        8.134E-01      8.134E-01      8.134E-01  
        CJE        0.000E+00      0.000E+00      0.000E+00  
         RE        0.000E+00      0.000E+00      0.000E+00  
         RB        0.000E+00      0.000E+00      0.000E+00  
         BR        1.000E+00      1.000E+00      1.000E+00  
        ISC        0.000E+00      0.000E+00      0.000E+00  
        VJC        8.134E-01      8.134E-01      8.134E-01  
        CJC        0.000E+00      0.000E+00      0.000E+00  
         RC        0.000E+00      4.000E+00      4.000E+00  
        RBM        0.000E+00      0.000E+00      0.000E+00  
         IS        1.614E-19      1.614E-19      1.614E-19  
        ISS        0.000E+00      0.000E+00      0.000E+00  
        VJS        8.134E-01      8.134E-01      8.134E-01  
        CJS        0.000E+00      0.000E+00      0.000E+00  
      GAMMA        1.000E-11      1.000E-11      1.000E-11  
        RCO        0.000E+00      0.000E+00      0.000E+00  
         VO        1.000E+01      1.000E+01      1.000E+01  

                  X_U3.PIX       X_U3.NIX       X_U3.POUT   

         BF        2.200E+02      2.200E+02      1.000E+02  
        ISE        0.000E+00      0.000E+00      0.000E+00  
        VJE        8.134E-01      8.134E-01      8.134E-01  
        CJE        0.000E+00      0.000E+00      0.000E+00  
         RE        0.000E+00      0.000E+00      0.000E+00  
         RB        0.000E+00      0.000E+00      0.000E+00  
         BR        1.000E+00      1.000E+00      1.000E+00  
        ISC        0.000E+00      0.000E+00      0.000E+00  
        VJC        8.134E-01      8.134E-01      8.134E-01  
        CJC        0.000E+00      0.000E+00      0.000E+00  
         RC        0.000E+00      0.000E+00      4.000E+00  
        RBM        0.000E+00      0.000E+00      0.000E+00  
         IS        1.614E-19      1.614E-19      1.614E-19  
        ISS        0.000E+00      0.000E+00      0.000E+00  
        VJS        8.134E-01      8.134E-01      8.134E-01  
        CJS        0.000E+00      0.000E+00      0.000E+00  
      GAMMA        1.000E-11      1.000E-11      1.000E-11  
        RCO        0.000E+00      0.000E+00      0.000E+00  
         VO        1.000E+01      1.000E+01      1.000E+01  

                  X_U3.NOUT                                 

         BF        1.000E+02  
        ISE        0.000E+00  
        VJE        8.134E-01  
        CJE        0.000E+00  
         RE        0.000E+00  
         RB        0.000E+00  
         BR        1.000E+00  
        ISC        0.000E+00  
        VJC        8.134E-01  
        CJC        0.000E+00  
         RC        4.000E+00  
        RBM        0.000E+00  
         IS        1.614E-19  
        ISS        0.000E+00  
        VJS        8.134E-01  
        CJS        0.000E+00  
      GAMMA        1.000E-11  
        RCO        0.000E+00  
         VO        1.000E+01  


 **** RESISTORS

                 R_R4 <R_R4>    R_R6 <R_R6>    R_R1 <R_R1>  

          R        1.000E+03      7.500E+02      7.300E+05  


                 R_R2 <R_R2>    R_R3 <R_R3>    R_R5 <R_R5>  

          R        7.300E+05      7.300E+05      3.300E+03  


                 R_R7 <R_R7>  R_Rref <R_Rref>  R_R8 <R_R8>  

          R        6.340E+03      3.650E+03      1.500E+03  


                 R_R9 <R_R9>  R_Rled <R_Rled> R_R10 <R_R10> 

          R        1.000E+04      4.000E+02      6.000E+03  


               R_Rref2 <R_Rref2>
                               R_R11 <R_R11>                

          R        4.000E+03      4.000E+02  



**** 06/02/24 13:27:58 ***** PSpice 23.1.0 (17 April 2024) **** ID# 0 ********

 ** Profile: "SCHEMATIC1-temp"  [ d:\faculta\anu ii\sem 2\cad\cdssetup\workspace\projects\final_version\final_version-PSpiceFiles\SCH


 ****     TEMPERATURE-ADJUSTED VALUES      TEMPERATURE =   -5.000 DEG C


******************************************************************************




 **** DIODE MODEL PARAMETERS

                 LO_3336-TYP      X_U2.DX        X_U1.DX    

         IS        3.764E-23      4.255E-19      4.255E-19  
         VJ        1.028E+00      1.028E+00      1.028E+00  
        CJO        0.000E+00      0.000E+00      0.000E+00  
         RS        1.622E+00      5.000E+00      5.000E+00  
        IKF        7.140E-03      0.000E+00      0.000E+00  
         BV                   

                   X_U3.DX                                  

         IS        4.255E-19  
         VJ        1.028E+00  
        CJO        0.000E+00  
         RS        5.000E+00  
        IKF        0.000E+00  
         BV                   


 **** BJT MODEL PARAMETERS

                Q2N2222A/ZTX     X_U2.PIX       X_U2.NIX    

         BF        2.200E+02      2.200E+02      2.200E+02  
        ISE        1.561E-16      0.000E+00      0.000E+00  
        VJE        8.050E-01      8.050E-01      8.050E-01  
        CJE        2.624E-11      0.000E+00      0.000E+00  
         RE        2.200E-01      0.000E+00      0.000E+00  
         RB        1.300E-01      0.000E+00      0.000E+00  
         BR        4.000E+00      1.000E+00      1.000E+00  
        ISC        1.996E-13      0.000E+00      0.000E+00  
        VJC        5.002E-01      8.050E-01      8.050E-01  
        CJC        8.364E-12      0.000E+00      0.000E+00  
         RC        1.200E-01      0.000E+00      0.000E+00  
        RBM        1.300E-01      0.000E+00      0.000E+00  
         IS        1.302E-16      4.255E-19      4.255E-19  
        ISS        0.000E+00      0.000E+00      0.000E+00  
        VJS        8.050E-01      8.050E-01      8.050E-01  
        CJS        0.000E+00      0.000E+00      0.000E+00  
      GAMMA        1.000E-11      1.000E-11      1.000E-11  
        RCO        0.000E+00      0.000E+00      0.000E+00  
         VO        1.000E+01      1.000E+01      1.000E+01  

                  X_U2.POUT      X_U2.NOUT      X_U1.PIX    

         BF        1.000E+02      1.000E+02      2.200E+02  
        ISE        0.000E+00      0.000E+00      0.000E+00  
        VJE        8.050E-01      8.050E-01      8.050E-01  
        CJE        0.000E+00      0.000E+00      0.000E+00  
         RE        0.000E+00      0.000E+00      0.000E+00  
         RB        0.000E+00      0.000E+00      0.000E+00  
         BR        1.000E+00      1.000E+00      1.000E+00  
        ISC        0.000E+00      0.000E+00      0.000E+00  
        VJC        8.050E-01      8.050E-01      8.050E-01  
        CJC        0.000E+00      0.000E+00      0.000E+00  
         RC        4.000E+00      4.000E+00      0.000E+00  
        RBM        0.000E+00      0.000E+00      0.000E+00  
         IS        4.255E-19      4.255E-19      4.255E-19  
        ISS        0.000E+00      0.000E+00      0.000E+00  
        VJS        8.050E-01      8.050E-01      8.050E-01  
        CJS        0.000E+00      0.000E+00      0.000E+00  
      GAMMA        1.000E-11      1.000E-11      1.000E-11  
        RCO        0.000E+00      0.000E+00      0.000E+00  
         VO        1.000E+01      1.000E+01      1.000E+01  

                  X_U1.NIX       X_U1.POUT      X_U1.NOUT   

         BF        2.200E+02      1.000E+02      1.000E+02  
        ISE        0.000E+00      0.000E+00      0.000E+00  
        VJE        8.050E-01      8.050E-01      8.050E-01  
        CJE        0.000E+00      0.000E+00      0.000E+00  
         RE        0.000E+00      0.000E+00      0.000E+00  
         RB        0.000E+00      0.000E+00      0.000E+00  
         BR        1.000E+00      1.000E+00      1.000E+00  
        ISC        0.000E+00      0.000E+00      0.000E+00  
        VJC        8.050E-01      8.050E-01      8.050E-01  
        CJC        0.000E+00      0.000E+00      0.000E+00  
         RC        0.000E+00      4.000E+00      4.000E+00  
        RBM        0.000E+00      0.000E+00      0.000E+00  
         IS        4.255E-19      4.255E-19      4.255E-19  
        ISS        0.000E+00      0.000E+00      0.000E+00  
        VJS        8.050E-01      8.050E-01      8.050E-01  
        CJS        0.000E+00      0.000E+00      0.000E+00  
      GAMMA        1.000E-11      1.000E-11      1.000E-11  
        RCO        0.000E+00      0.000E+00      0.000E+00  
         VO        1.000E+01      1.000E+01      1.000E+01  

                  X_U3.PIX       X_U3.NIX       X_U3.POUT   

         BF        2.200E+02      2.200E+02      1.000E+02  
        ISE        0.000E+00      0.000E+00      0.000E+00  
        VJE        8.050E-01      8.050E-01      8.050E-01  
        CJE        0.000E+00      0.000E+00      0.000E+00  
         RE        0.000E+00      0.000E+00      0.000E+00  
         RB        0.000E+00      0.000E+00      0.000E+00  
         BR        1.000E+00      1.000E+00      1.000E+00  
        ISC        0.000E+00      0.000E+00      0.000E+00  
        VJC        8.050E-01      8.050E-01      8.050E-01  
        CJC        0.000E+00      0.000E+00      0.000E+00  
         RC        0.000E+00      0.000E+00      4.000E+00  
        RBM        0.000E+00      0.000E+00      0.000E+00  
         IS        4.255E-19      4.255E-19      4.255E-19  
        ISS        0.000E+00      0.000E+00      0.000E+00  
        VJS        8.050E-01      8.050E-01      8.050E-01  
        CJS        0.000E+00      0.000E+00      0.000E+00  
      GAMMA        1.000E-11      1.000E-11      1.000E-11  
        RCO        0.000E+00      0.000E+00      0.000E+00  
         VO        1.000E+01      1.000E+01      1.000E+01  

                  X_U3.NOUT                                 

         BF        1.000E+02  
        ISE        0.000E+00  
        VJE        8.050E-01  
        CJE        0.000E+00  
         RE        0.000E+00  
         RB        0.000E+00  
         BR        1.000E+00  
        ISC        0.000E+00  
        VJC        8.050E-01  
        CJC        0.000E+00  
         RC        4.000E+00  
        RBM        0.000E+00  
         IS        4.255E-19  
        ISS        0.000E+00  
        VJS        8.050E-01  
        CJS        0.000E+00  
      GAMMA        1.000E-11  
        RCO        0.000E+00  
         VO        1.000E+01  


 **** RESISTORS

                 R_R4 <R_R4>    R_R6 <R_R6>    R_R1 <R_R1>  

          R        1.000E+03      7.500E+02      7.300E+05  


                 R_R2 <R_R2>    R_R3 <R_R3>    R_R5 <R_R5>  

          R        7.300E+05      7.300E+05      3.300E+03  


                 R_R7 <R_R7>  R_Rref <R_Rref>  R_R8 <R_R8>  

          R        6.340E+03      3.650E+03      1.500E+03  


                 R_R9 <R_R9>  R_Rled <R_Rled> R_R10 <R_R10> 

          R        1.000E+04      4.000E+02      6.000E+03  


               R_Rref2 <R_Rref2>
                               R_R11 <R_R11>                

          R        4.000E+03      4.000E+02  



**** 06/02/24 13:27:58 ***** PSpice 23.1.0 (17 April 2024) **** ID# 0 ********

 ** Profile: "SCHEMATIC1-temp"  [ d:\faculta\anu ii\sem 2\cad\cdssetup\workspace\projects\final_version\final_version-PSpiceFiles\SCH


 ****     TEMPERATURE-ADJUSTED VALUES      TEMPERATURE =    0.000 DEG C


******************************************************************************




 **** DIODE MODEL PARAMETERS

                 LO_3336-TYP      X_U2.DX        X_U1.DX    

         IS        6.576E-23      1.084E-18      1.084E-18  
         VJ        1.024E+00      1.024E+00      1.024E+00  
        CJO        0.000E+00      0.000E+00      0.000E+00  
         RS        1.622E+00      5.000E+00      5.000E+00  
        IKF        7.140E-03      0.000E+00      0.000E+00  
         BV                   

                   X_U3.DX                                  

         IS        1.084E-18  
         VJ        1.024E+00  
        CJO        0.000E+00  
         RS        5.000E+00  
        IKF        0.000E+00  
         BV                   


 **** BJT MODEL PARAMETERS

                Q2N2222A/ZTX     X_U2.PIX       X_U2.NIX    

         BF        2.200E+02      2.200E+02      2.200E+02  
        ISE        3.029E-16      0.000E+00      0.000E+00  
        VJE        7.965E-01      7.965E-01      7.965E-01  
        CJE        2.636E-11      0.000E+00      0.000E+00  
         RE        2.200E-01      0.000E+00      0.000E+00  
         RB        1.300E-01      0.000E+00      0.000E+00  
         BR        4.000E+00      1.000E+00      1.000E+00  
        ISC        3.944E-13      0.000E+00      0.000E+00  
        VJC        4.861E-01      7.965E-01      7.965E-01  
        CJC        8.482E-12      0.000E+00      0.000E+00  
         RC        1.200E-01      0.000E+00      0.000E+00  
        RBM        1.300E-01      0.000E+00      0.000E+00  
         IS        3.317E-16      1.084E-18      1.084E-18  
        ISS        0.000E+00      0.000E+00      0.000E+00  
        VJS        7.965E-01      7.965E-01      7.965E-01  
        CJS        0.000E+00      0.000E+00      0.000E+00  
      GAMMA        1.000E-11      1.000E-11      1.000E-11  
        RCO        0.000E+00      0.000E+00      0.000E+00  
         VO        1.000E+01      1.000E+01      1.000E+01  

                  X_U2.POUT      X_U2.NOUT      X_U1.PIX    

         BF        1.000E+02      1.000E+02      2.200E+02  
        ISE        0.000E+00      0.000E+00      0.000E+00  
        VJE        7.965E-01      7.965E-01      7.965E-01  
        CJE        0.000E+00      0.000E+00      0.000E+00  
         RE        0.000E+00      0.000E+00      0.000E+00  
         RB        0.000E+00      0.000E+00      0.000E+00  
         BR        1.000E+00      1.000E+00      1.000E+00  
        ISC        0.000E+00      0.000E+00      0.000E+00  
        VJC        7.965E-01      7.965E-01      7.965E-01  
        CJC        0.000E+00      0.000E+00      0.000E+00  
         RC        4.000E+00      4.000E+00      0.000E+00  
        RBM        0.000E+00      0.000E+00      0.000E+00  
         IS        1.084E-18      1.084E-18      1.084E-18  
        ISS        0.000E+00      0.000E+00      0.000E+00  
        VJS        7.965E-01      7.965E-01      7.965E-01  
        CJS        0.000E+00      0.000E+00      0.000E+00  
      GAMMA        1.000E-11      1.000E-11      1.000E-11  
        RCO        0.000E+00      0.000E+00      0.000E+00  
         VO        1.000E+01      1.000E+01      1.000E+01  

                  X_U1.NIX       X_U1.POUT      X_U1.NOUT   

         BF        2.200E+02      1.000E+02      1.000E+02  
        ISE        0.000E+00      0.000E+00      0.000E+00  
        VJE        7.965E-01      7.965E-01      7.965E-01  
        CJE        0.000E+00      0.000E+00      0.000E+00  
         RE        0.000E+00      0.000E+00      0.000E+00  
         RB        0.000E+00      0.000E+00      0.000E+00  
         BR        1.000E+00      1.000E+00      1.000E+00  
        ISC        0.000E+00      0.000E+00      0.000E+00  
        VJC        7.965E-01      7.965E-01      7.965E-01  
        CJC        0.000E+00      0.000E+00      0.000E+00  
         RC        0.000E+00      4.000E+00      4.000E+00  
        RBM        0.000E+00      0.000E+00      0.000E+00  
         IS        1.084E-18      1.084E-18      1.084E-18  
        ISS        0.000E+00      0.000E+00      0.000E+00  
        VJS        7.965E-01      7.965E-01      7.965E-01  
        CJS        0.000E+00      0.000E+00      0.000E+00  
      GAMMA        1.000E-11      1.000E-11      1.000E-11  
        RCO        0.000E+00      0.000E+00      0.000E+00  
         VO        1.000E+01      1.000E+01      1.000E+01  

                  X_U3.PIX       X_U3.NIX       X_U3.POUT   

         BF        2.200E+02      2.200E+02      1.000E+02  
        ISE        0.000E+00      0.000E+00      0.000E+00  
        VJE        7.965E-01      7.965E-01      7.965E-01  
        CJE        0.000E+00      0.000E+00      0.000E+00  
         RE        0.000E+00      0.000E+00      0.000E+00  
         RB        0.000E+00      0.000E+00      0.000E+00  
         BR        1.000E+00      1.000E+00      1.000E+00  
        ISC        0.000E+00      0.000E+00      0.000E+00  
        VJC        7.965E-01      7.965E-01      7.965E-01  
        CJC        0.000E+00      0.000E+00      0.000E+00  
         RC        0.000E+00      0.000E+00      4.000E+00  
        RBM        0.000E+00      0.000E+00      0.000E+00  
         IS        1.084E-18      1.084E-18      1.084E-18  
        ISS        0.000E+00      0.000E+00      0.000E+00  
        VJS        7.965E-01      7.965E-01      7.965E-01  
        CJS        0.000E+00      0.000E+00      0.000E+00  
      GAMMA        1.000E-11      1.000E-11      1.000E-11  
        RCO        0.000E+00      0.000E+00      0.000E+00  
         VO        1.000E+01      1.000E+01      1.000E+01  

                  X_U3.NOUT                                 

         BF        1.000E+02  
        ISE        0.000E+00  
        VJE        7.965E-01  
        CJE        0.000E+00  
         RE        0.000E+00  
         RB        0.000E+00  
         BR        1.000E+00  
        ISC        0.000E+00  
        VJC        7.965E-01  
        CJC        0.000E+00  
         RC        4.000E+00  
        RBM        0.000E+00  
         IS        1.084E-18  
        ISS        0.000E+00  
        VJS        7.965E-01  
        CJS        0.000E+00  
      GAMMA        1.000E-11  
        RCO        0.000E+00  
         VO        1.000E+01  


 **** RESISTORS

                 R_R4 <R_R4>    R_R6 <R_R6>    R_R1 <R_R1>  

          R        1.000E+03      7.500E+02      7.300E+05  


                 R_R2 <R_R2>    R_R3 <R_R3>    R_R5 <R_R5>  

          R        7.300E+05      7.300E+05      3.300E+03  


                 R_R7 <R_R7>  R_Rref <R_Rref>  R_R8 <R_R8>  

          R        6.340E+03      3.650E+03      1.500E+03  


                 R_R9 <R_R9>  R_Rled <R_Rled> R_R10 <R_R10> 

          R        1.000E+04      4.000E+02      6.000E+03  


               R_Rref2 <R_Rref2>
                               R_R11 <R_R11>                

          R        4.000E+03      4.000E+02  



**** 06/02/24 13:27:58 ***** PSpice 23.1.0 (17 April 2024) **** ID# 0 ********

 ** Profile: "SCHEMATIC1-temp"  [ d:\faculta\anu ii\sem 2\cad\cdssetup\workspace\projects\final_version\final_version-PSpiceFiles\SCH


 ****     TEMPERATURE-ADJUSTED VALUES      TEMPERATURE =    5.000 DEG C


******************************************************************************




 **** DIODE MODEL PARAMETERS

                 LO_3336-TYP      X_U2.DX        X_U1.DX    

         IS        1.127E-22      2.671E-18      2.671E-18  
         VJ        1.020E+00      1.020E+00      1.020E+00  
        CJO        0.000E+00      0.000E+00      0.000E+00  
         RS        1.622E+00      5.000E+00      5.000E+00  
        IKF        7.140E-03      0.000E+00      0.000E+00  
         BV                   

                   X_U3.DX                                  

         IS        2.671E-18  
         VJ        1.020E+00  
        CJO        0.000E+00  
         RS        5.000E+00  
        IKF        0.000E+00  
         BV                   


 **** BJT MODEL PARAMETERS

                Q2N2222A/ZTX     X_U2.PIX       X_U2.NIX    

         BF        2.200E+02      2.200E+02      2.200E+02  
        ISE        5.744E-16      0.000E+00      0.000E+00  
        VJE        7.880E-01      7.880E-01      7.880E-01  
        CJE        2.648E-11      0.000E+00      0.000E+00  
         RE        2.200E-01      0.000E+00      0.000E+00  
         RB        1.300E-01      0.000E+00      0.000E+00  
         BR        4.000E+00      1.000E+00      1.000E+00  
        ISC        7.609E-13      0.000E+00      0.000E+00  
        VJC        4.719E-01      7.880E-01      7.880E-01  
        CJC        8.599E-12      0.000E+00      0.000E+00  
         RC        1.200E-01      0.000E+00      0.000E+00  
        RBM        1.300E-01      0.000E+00      0.000E+00  
         IS        8.176E-16      2.671E-18      2.671E-18  
        ISS        0.000E+00      0.000E+00      0.000E+00  
        VJS        7.880E-01      7.880E-01      7.880E-01  
        CJS        0.000E+00      0.000E+00      0.000E+00  
      GAMMA        1.000E-11      1.000E-11      1.000E-11  
        RCO        0.000E+00      0.000E+00      0.000E+00  
         VO        1.000E+01      1.000E+01      1.000E+01  

                  X_U2.POUT      X_U2.NOUT      X_U1.PIX    

         BF        1.000E+02      1.000E+02      2.200E+02  
        ISE        0.000E+00      0.000E+00      0.000E+00  
        VJE        7.880E-01      7.880E-01      7.880E-01  
        CJE        0.000E+00      0.000E+00      0.000E+00  
         RE        0.000E+00      0.000E+00      0.000E+00  
         RB        0.000E+00      0.000E+00      0.000E+00  
         BR        1.000E+00      1.000E+00      1.000E+00  
        ISC        0.000E+00      0.000E+00      0.000E+00  
        VJC        7.880E-01      7.880E-01      7.880E-01  
        CJC        0.000E+00      0.000E+00      0.000E+00  
         RC        4.000E+00      4.000E+00      0.000E+00  
        RBM        0.000E+00      0.000E+00      0.000E+00  
         IS        2.671E-18      2.671E-18      2.671E-18  
        ISS        0.000E+00      0.000E+00      0.000E+00  
        VJS        7.880E-01      7.880E-01      7.880E-01  
        CJS        0.000E+00      0.000E+00      0.000E+00  
      GAMMA        1.000E-11      1.000E-11      1.000E-11  
        RCO        0.000E+00      0.000E+00      0.000E+00  
         VO        1.000E+01      1.000E+01      1.000E+01  

                  X_U1.NIX       X_U1.POUT      X_U1.NOUT   

         BF        2.200E+02      1.000E+02      1.000E+02  
        ISE        0.000E+00      0.000E+00      0.000E+00  
        VJE        7.880E-01      7.880E-01      7.880E-01  
        CJE        0.000E+00      0.000E+00      0.000E+00  
         RE        0.000E+00      0.000E+00      0.000E+00  
         RB        0.000E+00      0.000E+00      0.000E+00  
         BR        1.000E+00      1.000E+00      1.000E+00  
        ISC        0.000E+00      0.000E+00      0.000E+00  
        VJC        7.880E-01      7.880E-01      7.880E-01  
        CJC        0.000E+00      0.000E+00      0.000E+00  
         RC        0.000E+00      4.000E+00      4.000E+00  
        RBM        0.000E+00      0.000E+00      0.000E+00  
         IS        2.671E-18      2.671E-18      2.671E-18  
        ISS        0.000E+00      0.000E+00      0.000E+00  
        VJS        7.880E-01      7.880E-01      7.880E-01  
        CJS        0.000E+00      0.000E+00      0.000E+00  
      GAMMA        1.000E-11      1.000E-11      1.000E-11  
        RCO        0.000E+00      0.000E+00      0.000E+00  
         VO        1.000E+01      1.000E+01      1.000E+01  

                  X_U3.PIX       X_U3.NIX       X_U3.POUT   

         BF        2.200E+02      2.200E+02      1.000E+02  
        ISE        0.000E+00      0.000E+00      0.000E+00  
        VJE        7.880E-01      7.880E-01      7.880E-01  
        CJE        0.000E+00      0.000E+00      0.000E+00  
         RE        0.000E+00      0.000E+00      0.000E+00  
         RB        0.000E+00      0.000E+00      0.000E+00  
         BR        1.000E+00      1.000E+00      1.000E+00  
        ISC        0.000E+00      0.000E+00      0.000E+00  
        VJC        7.880E-01      7.880E-01      7.880E-01  
        CJC        0.000E+00      0.000E+00      0.000E+00  
         RC        0.000E+00      0.000E+00      4.000E+00  
        RBM        0.000E+00      0.000E+00      0.000E+00  
         IS        2.671E-18      2.671E-18      2.671E-18  
        ISS        0.000E+00      0.000E+00      0.000E+00  
        VJS        7.880E-01      7.880E-01      7.880E-01  
        CJS        0.000E+00      0.000E+00      0.000E+00  
      GAMMA        1.000E-11      1.000E-11      1.000E-11  
        RCO        0.000E+00      0.000E+00      0.000E+00  
         VO        1.000E+01      1.000E+01      1.000E+01  

                  X_U3.NOUT                                 

         BF        1.000E+02  
        ISE        0.000E+00  
        VJE        7.880E-01  
        CJE        0.000E+00  
         RE        0.000E+00  
         RB        0.000E+00  
         BR        1.000E+00  
        ISC        0.000E+00  
        VJC        7.880E-01  
        CJC        0.000E+00  
         RC        4.000E+00  
        RBM        0.000E+00  
         IS        2.671E-18  
        ISS        0.000E+00  
        VJS        7.880E-01  
        CJS        0.000E+00  
      GAMMA        1.000E-11  
        RCO        0.000E+00  
         VO        1.000E+01  


 **** RESISTORS

                 R_R4 <R_R4>    R_R6 <R_R6>    R_R1 <R_R1>  

          R        1.000E+03      7.500E+02      7.300E+05  


                 R_R2 <R_R2>    R_R3 <R_R3>    R_R5 <R_R5>  

          R        7.300E+05      7.300E+05      3.300E+03  


                 R_R7 <R_R7>  R_Rref <R_Rref>  R_R8 <R_R8>  

          R        6.340E+03      3.650E+03      1.500E+03  


                 R_R9 <R_R9>  R_Rled <R_Rled> R_R10 <R_R10> 

          R        1.000E+04      4.000E+02      6.000E+03  


               R_Rref2 <R_Rref2>
                               R_R11 <R_R11>                

          R        4.000E+03      4.000E+02  



**** 06/02/24 13:27:58 ***** PSpice 23.1.0 (17 April 2024) **** ID# 0 ********

 ** Profile: "SCHEMATIC1-temp"  [ d:\faculta\anu ii\sem 2\cad\cdssetup\workspace\projects\final_version\final_version-PSpiceFiles\SCH


 ****     TEMPERATURE-ADJUSTED VALUES      TEMPERATURE =   10.000 DEG C


******************************************************************************




 **** DIODE MODEL PARAMETERS

                 LO_3336-TYP      X_U2.DX        X_U1.DX    

         IS        1.896E-22      6.383E-18      6.383E-18  
         VJ        1.015E+00      1.015E+00      1.015E+00  
        CJO        0.000E+00      0.000E+00      0.000E+00  
         RS        1.622E+00      5.000E+00      5.000E+00  
        IKF        7.140E-03      0.000E+00      0.000E+00  
         BV                   

                   X_U3.DX                                  

         IS        6.383E-18  
         VJ        1.015E+00  
        CJO        0.000E+00  
         RS        5.000E+00  
        IKF        0.000E+00  
         BV                   


 **** BJT MODEL PARAMETERS

                Q2N2222A/ZTX     X_U2.PIX       X_U2.NIX    

         BF        2.200E+02      2.200E+02      2.200E+02  
        ISE        1.065E-15      0.000E+00      0.000E+00  
        VJE        7.794E-01      7.794E-01      7.794E-01  
        CJE        2.660E-11      0.000E+00      0.000E+00  
         RE        2.200E-01      0.000E+00      0.000E+00  
         RB        1.300E-01      0.000E+00      0.000E+00  
         BR        4.000E+00      1.000E+00      1.000E+00  
        ISC        1.435E-12      0.000E+00      0.000E+00  
        VJC        4.576E-01      7.794E-01      7.794E-01  
        CJC        8.717E-12      0.000E+00      0.000E+00  
         RC        1.200E-01      0.000E+00      0.000E+00  
        RBM        1.300E-01      0.000E+00      0.000E+00  
         IS        1.954E-15      6.383E-18      6.383E-18  
        ISS        0.000E+00      0.000E+00      0.000E+00  
        VJS        7.794E-01      7.794E-01      7.794E-01  
        CJS        0.000E+00      0.000E+00      0.000E+00  
      GAMMA        1.000E-11      1.000E-11      1.000E-11  
        RCO        0.000E+00      0.000E+00      0.000E+00  
         VO        1.000E+01      1.000E+01      1.000E+01  

                  X_U2.POUT      X_U2.NOUT      X_U1.PIX    

         BF        1.000E+02      1.000E+02      2.200E+02  
        ISE        0.000E+00      0.000E+00      0.000E+00  
        VJE        7.794E-01      7.794E-01      7.794E-01  
        CJE        0.000E+00      0.000E+00      0.000E+00  
         RE        0.000E+00      0.000E+00      0.000E+00  
         RB        0.000E+00      0.000E+00      0.000E+00  
         BR        1.000E+00      1.000E+00      1.000E+00  
        ISC        0.000E+00      0.000E+00      0.000E+00  
        VJC        7.794E-01      7.794E-01      7.794E-01  
        CJC        0.000E+00      0.000E+00      0.000E+00  
         RC        4.000E+00      4.000E+00      0.000E+00  
        RBM        0.000E+00      0.000E+00      0.000E+00  
         IS        6.383E-18      6.383E-18      6.383E-18  
        ISS        0.000E+00      0.000E+00      0.000E+00  
        VJS        7.794E-01      7.794E-01      7.794E-01  
        CJS        0.000E+00      0.000E+00      0.000E+00  
      GAMMA        1.000E-11      1.000E-11      1.000E-11  
        RCO        0.000E+00      0.000E+00      0.000E+00  
         VO        1.000E+01      1.000E+01      1.000E+01  

                  X_U1.NIX       X_U1.POUT      X_U1.NOUT   

         BF        2.200E+02      1.000E+02      1.000E+02  
        ISE        0.000E+00      0.000E+00      0.000E+00  
        VJE        7.794E-01      7.794E-01      7.794E-01  
        CJE        0.000E+00      0.000E+00      0.000E+00  
         RE        0.000E+00      0.000E+00      0.000E+00  
         RB        0.000E+00      0.000E+00      0.000E+00  
         BR        1.000E+00      1.000E+00      1.000E+00  
        ISC        0.000E+00      0.000E+00      0.000E+00  
        VJC        7.794E-01      7.794E-01      7.794E-01  
        CJC        0.000E+00      0.000E+00      0.000E+00  
         RC        0.000E+00      4.000E+00      4.000E+00  
        RBM        0.000E+00      0.000E+00      0.000E+00  
         IS        6.383E-18      6.383E-18      6.383E-18  
        ISS        0.000E+00      0.000E+00      0.000E+00  
        VJS        7.794E-01      7.794E-01      7.794E-01  
        CJS        0.000E+00      0.000E+00      0.000E+00  
      GAMMA        1.000E-11      1.000E-11      1.000E-11  
        RCO        0.000E+00      0.000E+00      0.000E+00  
         VO        1.000E+01      1.000E+01      1.000E+01  

                  X_U3.PIX       X_U3.NIX       X_U3.POUT   

         BF        2.200E+02      2.200E+02      1.000E+02  
        ISE        0.000E+00      0.000E+00      0.000E+00  
        VJE        7.794E-01      7.794E-01      7.794E-01  
        CJE        0.000E+00      0.000E+00      0.000E+00  
         RE        0.000E+00      0.000E+00      0.000E+00  
         RB        0.000E+00      0.000E+00      0.000E+00  
         BR        1.000E+00      1.000E+00      1.000E+00  
        ISC        0.000E+00      0.000E+00      0.000E+00  
        VJC        7.794E-01      7.794E-01      7.794E-01  
        CJC        0.000E+00      0.000E+00      0.000E+00  
         RC        0.000E+00      0.000E+00      4.000E+00  
        RBM        0.000E+00      0.000E+00      0.000E+00  
         IS        6.383E-18      6.383E-18      6.383E-18  
        ISS        0.000E+00      0.000E+00      0.000E+00  
        VJS        7.794E-01      7.794E-01      7.794E-01  
        CJS        0.000E+00      0.000E+00      0.000E+00  
      GAMMA        1.000E-11      1.000E-11      1.000E-11  
        RCO        0.000E+00      0.000E+00      0.000E+00  
         VO        1.000E+01      1.000E+01      1.000E+01  

                  X_U3.NOUT                                 

         BF        1.000E+02  
        ISE        0.000E+00  
        VJE        7.794E-01  
        CJE        0.000E+00  
         RE        0.000E+00  
         RB        0.000E+00  
         BR        1.000E+00  
        ISC        0.000E+00  
        VJC        7.794E-01  
        CJC        0.000E+00  
         RC        4.000E+00  
        RBM        0.000E+00  
         IS        6.383E-18  
        ISS        0.000E+00  
        VJS        7.794E-01  
        CJS        0.000E+00  
      GAMMA        1.000E-11  
        RCO        0.000E+00  
         VO        1.000E+01  


 **** RESISTORS

                 R_R4 <R_R4>    R_R6 <R_R6>    R_R1 <R_R1>  

          R        1.000E+03      7.500E+02      7.300E+05  


                 R_R2 <R_R2>    R_R3 <R_R3>    R_R5 <R_R5>  

          R        7.300E+05      7.300E+05      3.300E+03  


                 R_R7 <R_R7>  R_Rref <R_Rref>  R_R8 <R_R8>  

          R        6.340E+03      3.650E+03      1.500E+03  


                 R_R9 <R_R9>  R_Rled <R_Rled> R_R10 <R_R10> 

          R        1.000E+04      4.000E+02      6.000E+03  


               R_Rref2 <R_Rref2>
                               R_R11 <R_R11>                

          R        4.000E+03      4.000E+02  



**** 06/02/24 13:27:58 ***** PSpice 23.1.0 (17 April 2024) **** ID# 0 ********

 ** Profile: "SCHEMATIC1-temp"  [ d:\faculta\anu ii\sem 2\cad\cdssetup\workspace\projects\final_version\final_version-PSpiceFiles\SCH


 ****     TEMPERATURE-ADJUSTED VALUES      TEMPERATURE =   15.000 DEG C


******************************************************************************




 **** DIODE MODEL PARAMETERS

                 LO_3336-TYP      X_U2.DX        X_U1.DX    

         IS        3.134E-22      1.481E-17      1.481E-17  
         VJ        1.011E+00      1.011E+00      1.011E+00  
        CJO        0.000E+00      0.000E+00      0.000E+00  
         RS        1.622E+00      5.000E+00      5.000E+00  
        IKF        7.140E-03      0.000E+00      0.000E+00  
         BV                   

                   X_U3.DX                                  

         IS        1.481E-17  
         VJ        1.011E+00  
        CJO        0.000E+00  
         RS        5.000E+00  
        IKF        0.000E+00  
         BV                   


 **** BJT MODEL PARAMETERS

                Q2N2222A/ZTX     X_U2.PIX       X_U2.NIX    

         BF        2.200E+02      2.200E+02      2.200E+02  
        ISE        1.936E-15      0.000E+00      0.000E+00  
        VJE        7.708E-01      7.708E-01      7.708E-01  
        CJE        2.672E-11      0.000E+00      0.000E+00  
         RE        2.200E-01      0.000E+00      0.000E+00  
         RB        1.300E-01      0.000E+00      0.000E+00  
         BR        4.000E+00      1.000E+00      1.000E+00  
        ISC        2.650E-12      0.000E+00      0.000E+00  
        VJC        4.433E-01      7.708E-01      7.708E-01  
        CJC        8.835E-12      0.000E+00      0.000E+00  
         RC        1.200E-01      0.000E+00      0.000E+00  
        RBM        1.300E-01      0.000E+00      0.000E+00  
         IS        4.534E-15      1.481E-17      1.481E-17  
        ISS        0.000E+00      0.000E+00      0.000E+00  
        VJS        7.708E-01      7.708E-01      7.708E-01  
        CJS        0.000E+00      0.000E+00      0.000E+00  
      GAMMA        1.000E-11      1.000E-11      1.000E-11  
        RCO        0.000E+00      0.000E+00      0.000E+00  
         VO        1.000E+01      1.000E+01      1.000E+01  

                  X_U2.POUT      X_U2.NOUT      X_U1.PIX    

         BF        1.000E+02      1.000E+02      2.200E+02  
        ISE        0.000E+00      0.000E+00      0.000E+00  
        VJE        7.708E-01      7.708E-01      7.708E-01  
        CJE        0.000E+00      0.000E+00      0.000E+00  
         RE        0.000E+00      0.000E+00      0.000E+00  
         RB        0.000E+00      0.000E+00      0.000E+00  
         BR        1.000E+00      1.000E+00      1.000E+00  
        ISC        0.000E+00      0.000E+00      0.000E+00  
        VJC        7.708E-01      7.708E-01      7.708E-01  
        CJC        0.000E+00      0.000E+00      0.000E+00  
         RC        4.000E+00      4.000E+00      0.000E+00  
        RBM        0.000E+00      0.000E+00      0.000E+00  
         IS        1.481E-17      1.481E-17      1.481E-17  
        ISS        0.000E+00      0.000E+00      0.000E+00  
        VJS        7.708E-01      7.708E-01      7.708E-01  
        CJS        0.000E+00      0.000E+00      0.000E+00  
      GAMMA        1.000E-11      1.000E-11      1.000E-11  
        RCO        0.000E+00      0.000E+00      0.000E+00  
         VO        1.000E+01      1.000E+01      1.000E+01  

                  X_U1.NIX       X_U1.POUT      X_U1.NOUT   

         BF        2.200E+02      1.000E+02      1.000E+02  
        ISE        0.000E+00      0.000E+00      0.000E+00  
        VJE        7.708E-01      7.708E-01      7.708E-01  
        CJE        0.000E+00      0.000E+00      0.000E+00  
         RE        0.000E+00      0.000E+00      0.000E+00  
         RB        0.000E+00      0.000E+00      0.000E+00  
         BR        1.000E+00      1.000E+00      1.000E+00  
        ISC        0.000E+00      0.000E+00      0.000E+00  
        VJC        7.708E-01      7.708E-01      7.708E-01  
        CJC        0.000E+00      0.000E+00      0.000E+00  
         RC        0.000E+00      4.000E+00      4.000E+00  
        RBM        0.000E+00      0.000E+00      0.000E+00  
         IS        1.481E-17      1.481E-17      1.481E-17  
        ISS        0.000E+00      0.000E+00      0.000E+00  
        VJS        7.708E-01      7.708E-01      7.708E-01  
        CJS        0.000E+00      0.000E+00      0.000E+00  
      GAMMA        1.000E-11      1.000E-11      1.000E-11  
        RCO        0.000E+00      0.000E+00      0.000E+00  
         VO        1.000E+01      1.000E+01      1.000E+01  

                  X_U3.PIX       X_U3.NIX       X_U3.POUT   

         BF        2.200E+02      2.200E+02      1.000E+02  
        ISE        0.000E+00      0.000E+00      0.000E+00  
        VJE        7.708E-01      7.708E-01      7.708E-01  
        CJE        0.000E+00      0.000E+00      0.000E+00  
         RE        0.000E+00      0.000E+00      0.000E+00  
         RB        0.000E+00      0.000E+00      0.000E+00  
         BR        1.000E+00      1.000E+00      1.000E+00  
        ISC        0.000E+00      0.000E+00      0.000E+00  
        VJC        7.708E-01      7.708E-01      7.708E-01  
        CJC        0.000E+00      0.000E+00      0.000E+00  
         RC        0.000E+00      0.000E+00      4.000E+00  
        RBM        0.000E+00      0.000E+00      0.000E+00  
         IS        1.481E-17      1.481E-17      1.481E-17  
        ISS        0.000E+00      0.000E+00      0.000E+00  
        VJS        7.708E-01      7.708E-01      7.708E-01  
        CJS        0.000E+00      0.000E+00      0.000E+00  
      GAMMA        1.000E-11      1.000E-11      1.000E-11  
        RCO        0.000E+00      0.000E+00      0.000E+00  
         VO        1.000E+01      1.000E+01      1.000E+01  

                  X_U3.NOUT                                 

         BF        1.000E+02  
        ISE        0.000E+00  
        VJE        7.708E-01  
        CJE        0.000E+00  
         RE        0.000E+00  
         RB        0.000E+00  
         BR        1.000E+00  
        ISC        0.000E+00  
        VJC        7.708E-01  
        CJC        0.000E+00  
         RC        4.000E+00  
        RBM        0.000E+00  
         IS        1.481E-17  
        ISS        0.000E+00  
        VJS        7.708E-01  
        CJS        0.000E+00  
      GAMMA        1.000E-11  
        RCO        0.000E+00  
         VO        1.000E+01  


 **** RESISTORS

                 R_R4 <R_R4>    R_R6 <R_R6>    R_R1 <R_R1>  

          R        1.000E+03      7.500E+02      7.300E+05  


                 R_R2 <R_R2>    R_R3 <R_R3>    R_R5 <R_R5>  

          R        7.300E+05      7.300E+05      3.300E+03  


                 R_R7 <R_R7>  R_Rref <R_Rref>  R_R8 <R_R8>  

          R        6.340E+03      3.650E+03      1.500E+03  


                 R_R9 <R_R9>  R_Rled <R_Rled> R_R10 <R_R10> 

          R        1.000E+04      4.000E+02      6.000E+03  


               R_Rref2 <R_Rref2>
                               R_R11 <R_R11>                

          R        4.000E+03      4.000E+02  



**** 06/02/24 13:27:58 ***** PSpice 23.1.0 (17 April 2024) **** ID# 0 ********

 ** Profile: "SCHEMATIC1-temp"  [ d:\faculta\anu ii\sem 2\cad\cdssetup\workspace\projects\final_version\final_version-PSpiceFiles\SCH


 ****     TEMPERATURE-ADJUSTED VALUES      TEMPERATURE =   20.000 DEG C


******************************************************************************




 **** DIODE MODEL PARAMETERS

                 LO_3336-TYP      X_U2.DX        X_U1.DX    

         IS        5.096E-22      3.343E-17      3.343E-17  
         VJ        1.006E+00      1.006E+00      1.006E+00  
        CJO        0.000E+00      0.000E+00      0.000E+00  
         RS        1.622E+00      5.000E+00      5.000E+00  
        IKF        7.140E-03      0.000E+00      0.000E+00  
         BV                   

                   X_U3.DX                                  

         IS        3.343E-17  
         VJ        1.006E+00  
        CJO        0.000E+00  
         RS        5.000E+00  
        IKF        0.000E+00  
         BV                   


 **** BJT MODEL PARAMETERS

                Q2N2222A/ZTX     X_U2.PIX       X_U2.NIX    

         BF        2.200E+02      2.200E+02      2.200E+02  
        ISE        3.448E-15      0.000E+00      0.000E+00  
        VJE        7.622E-01      7.622E-01      7.622E-01  
        CJE        2.684E-11      0.000E+00      0.000E+00  
         RE        2.200E-01      0.000E+00      0.000E+00  
         RB        1.300E-01      0.000E+00      0.000E+00  
         BR        4.000E+00      1.000E+00      1.000E+00  
        ISC        4.796E-12      0.000E+00      0.000E+00  
        VJC        4.290E-01      7.622E-01      7.622E-01  
        CJC        8.954E-12      0.000E+00      0.000E+00  
         RC        1.200E-01      0.000E+00      0.000E+00  
        RBM        1.300E-01      0.000E+00      0.000E+00  
         IS        1.023E-14      3.343E-17      3.343E-17  
        ISS        0.000E+00      0.000E+00      0.000E+00  
        VJS        7.622E-01      7.622E-01      7.622E-01  
        CJS        0.000E+00      0.000E+00      0.000E+00  
      GAMMA        1.000E-11      1.000E-11      1.000E-11  
        RCO        0.000E+00      0.000E+00      0.000E+00  
         VO        1.000E+01      1.000E+01      1.000E+01  

                  X_U2.POUT      X_U2.NOUT      X_U1.PIX    

         BF        1.000E+02      1.000E+02      2.200E+02  
        ISE        0.000E+00      0.000E+00      0.000E+00  
        VJE        7.622E-01      7.622E-01      7.622E-01  
        CJE        0.000E+00      0.000E+00      0.000E+00  
         RE        0.000E+00      0.000E+00      0.000E+00  
         RB        0.000E+00      0.000E+00      0.000E+00  
         BR        1.000E+00      1.000E+00      1.000E+00  
        ISC        0.000E+00      0.000E+00      0.000E+00  
        VJC        7.622E-01      7.622E-01      7.622E-01  
        CJC        0.000E+00      0.000E+00      0.000E+00  
         RC        4.000E+00      4.000E+00      0.000E+00  
        RBM        0.000E+00      0.000E+00      0.000E+00  
         IS        3.343E-17      3.343E-17      3.343E-17  
        ISS        0.000E+00      0.000E+00      0.000E+00  
        VJS        7.622E-01      7.622E-01      7.622E-01  
        CJS        0.000E+00      0.000E+00      0.000E+00  
      GAMMA        1.000E-11      1.000E-11      1.000E-11  
        RCO        0.000E+00      0.000E+00      0.000E+00  
         VO        1.000E+01      1.000E+01      1.000E+01  

                  X_U1.NIX       X_U1.POUT      X_U1.NOUT   

         BF        2.200E+02      1.000E+02      1.000E+02  
        ISE        0.000E+00      0.000E+00      0.000E+00  
        VJE        7.622E-01      7.622E-01      7.622E-01  
        CJE        0.000E+00      0.000E+00      0.000E+00  
         RE        0.000E+00      0.000E+00      0.000E+00  
         RB        0.000E+00      0.000E+00      0.000E+00  
         BR        1.000E+00      1.000E+00      1.000E+00  
        ISC        0.000E+00      0.000E+00      0.000E+00  
        VJC        7.622E-01      7.622E-01      7.622E-01  
        CJC        0.000E+00      0.000E+00      0.000E+00  
         RC        0.000E+00      4.000E+00      4.000E+00  
        RBM        0.000E+00      0.000E+00      0.000E+00  
         IS        3.343E-17      3.343E-17      3.343E-17  
        ISS        0.000E+00      0.000E+00      0.000E+00  
        VJS        7.622E-01      7.622E-01      7.622E-01  
        CJS        0.000E+00      0.000E+00      0.000E+00  
      GAMMA        1.000E-11      1.000E-11      1.000E-11  
        RCO        0.000E+00      0.000E+00      0.000E+00  
         VO        1.000E+01      1.000E+01      1.000E+01  

                  X_U3.PIX       X_U3.NIX       X_U3.POUT   

         BF        2.200E+02      2.200E+02      1.000E+02  
        ISE        0.000E+00      0.000E+00      0.000E+00  
        VJE        7.622E-01      7.622E-01      7.622E-01  
        CJE        0.000E+00      0.000E+00      0.000E+00  
         RE        0.000E+00      0.000E+00      0.000E+00  
         RB        0.000E+00      0.000E+00      0.000E+00  
         BR        1.000E+00      1.000E+00      1.000E+00  
        ISC        0.000E+00      0.000E+00      0.000E+00  
        VJC        7.622E-01      7.622E-01      7.622E-01  
        CJC        0.000E+00      0.000E+00      0.000E+00  
         RC        0.000E+00      0.000E+00      4.000E+00  
        RBM        0.000E+00      0.000E+00      0.000E+00  
         IS        3.343E-17      3.343E-17      3.343E-17  
        ISS        0.000E+00      0.000E+00      0.000E+00  
        VJS        7.622E-01      7.622E-01      7.622E-01  
        CJS        0.000E+00      0.000E+00      0.000E+00  
      GAMMA        1.000E-11      1.000E-11      1.000E-11  
        RCO        0.000E+00      0.000E+00      0.000E+00  
         VO        1.000E+01      1.000E+01      1.000E+01  

                  X_U3.NOUT                                 

         BF        1.000E+02  
        ISE        0.000E+00  
        VJE        7.622E-01  
        CJE        0.000E+00  
         RE        0.000E+00  
         RB        0.000E+00  
         BR        1.000E+00  
        ISC        0.000E+00  
        VJC        7.622E-01  
        CJC        0.000E+00  
         RC        4.000E+00  
        RBM        0.000E+00  
         IS        3.343E-17  
        ISS        0.000E+00  
        VJS        7.622E-01  
        CJS        0.000E+00  
      GAMMA        1.000E-11  
        RCO        0.000E+00  
         VO        1.000E+01  


 **** RESISTORS

                 R_R4 <R_R4>    R_R6 <R_R6>    R_R1 <R_R1>  

          R        1.000E+03      7.500E+02      7.300E+05  


                 R_R2 <R_R2>    R_R3 <R_R3>    R_R5 <R_R5>  

          R        7.300E+05      7.300E+05      3.300E+03  


                 R_R7 <R_R7>  R_Rref <R_Rref>  R_R8 <R_R8>  

          R        6.340E+03      3.650E+03      1.500E+03  


                 R_R9 <R_R9>  R_Rled <R_Rled> R_R10 <R_R10> 

          R        1.000E+04      4.000E+02      6.000E+03  


               R_Rref2 <R_Rref2>
                               R_R11 <R_R11>                

          R        4.000E+03      4.000E+02  



**** 06/02/24 13:27:58 ***** PSpice 23.1.0 (17 April 2024) **** ID# 0 ********

 ** Profile: "SCHEMATIC1-temp"  [ d:\faculta\anu ii\sem 2\cad\cdssetup\workspace\projects\final_version\final_version-PSpiceFiles\SCH


 ****     TEMPERATURE-ADJUSTED VALUES      TEMPERATURE =   25.000 DEG C


******************************************************************************




 **** DIODE MODEL PARAMETERS

                 LO_3336-TYP      X_U2.DX        X_U1.DX    

         IS        8.155E-22      7.350E-17      7.350E-17  
         VJ        1.002E+00      1.002E+00      1.002E+00  
        CJO        0.000E+00      0.000E+00      0.000E+00  
         RS        1.622E+00      5.000E+00      5.000E+00  
        IKF        7.140E-03      0.000E+00      0.000E+00  
         BV                   

                   X_U3.DX                                  

         IS        7.350E-17  
         VJ        1.002E+00  
        CJO        0.000E+00  
         RS        5.000E+00  
        IKF        0.000E+00  
         BV                   


 **** BJT MODEL PARAMETERS

                Q2N2222A/ZTX     X_U2.PIX       X_U2.NIX    

         BF        2.200E+02      2.200E+02      2.200E+02  
        ISE        6.029E-15      0.000E+00      0.000E+00  
        VJE        7.535E-01      7.535E-01      7.535E-01  
        CJE        2.696E-11      0.000E+00      0.000E+00  
         RE        2.200E-01      0.000E+00      0.000E+00  
         RB        1.300E-01      0.000E+00      0.000E+00  
         BR        4.000E+00      1.000E+00      1.000E+00  
        ISC        8.512E-12      0.000E+00      0.000E+00  
        VJC        4.147E-01      7.535E-01      7.535E-01  
        CJC        9.072E-12      0.000E+00      0.000E+00  
         RC        1.200E-01      0.000E+00      0.000E+00  
        RBM        1.300E-01      0.000E+00      0.000E+00  
         IS        2.250E-14      7.350E-17      7.350E-17  
        ISS        0.000E+00      0.000E+00      0.000E+00  
        VJS        7.535E-01      7.535E-01      7.535E-01  
        CJS        0.000E+00      0.000E+00      0.000E+00  
      GAMMA        1.000E-11      1.000E-11      1.000E-11  
        RCO        0.000E+00      0.000E+00      0.000E+00  
         VO        1.000E+01      1.000E+01      1.000E+01  

                  X_U2.POUT      X_U2.NOUT      X_U1.PIX    

         BF        1.000E+02      1.000E+02      2.200E+02  
        ISE        0.000E+00      0.000E+00      0.000E+00  
        VJE        7.535E-01      7.535E-01      7.535E-01  
        CJE        0.000E+00      0.000E+00      0.000E+00  
         RE        0.000E+00      0.000E+00      0.000E+00  
         RB        0.000E+00      0.000E+00      0.000E+00  
         BR        1.000E+00      1.000E+00      1.000E+00  
        ISC        0.000E+00      0.000E+00      0.000E+00  
        VJC        7.535E-01      7.535E-01      7.535E-01  
        CJC        0.000E+00      0.000E+00      0.000E+00  
         RC        4.000E+00      4.000E+00      0.000E+00  
        RBM        0.000E+00      0.000E+00      0.000E+00  
         IS        7.350E-17      7.350E-17      7.350E-17  
        ISS        0.000E+00      0.000E+00      0.000E+00  
        VJS        7.535E-01      7.535E-01      7.535E-01  
        CJS        0.000E+00      0.000E+00      0.000E+00  
      GAMMA        1.000E-11      1.000E-11      1.000E-11  
        RCO        0.000E+00      0.000E+00      0.000E+00  
         VO        1.000E+01      1.000E+01      1.000E+01  

                  X_U1.NIX       X_U1.POUT      X_U1.NOUT   

         BF        2.200E+02      1.000E+02      1.000E+02  
        ISE        0.000E+00      0.000E+00      0.000E+00  
        VJE        7.535E-01      7.535E-01      7.535E-01  
        CJE        0.000E+00      0.000E+00      0.000E+00  
         RE        0.000E+00      0.000E+00      0.000E+00  
         RB        0.000E+00      0.000E+00      0.000E+00  
         BR        1.000E+00      1.000E+00      1.000E+00  
        ISC        0.000E+00      0.000E+00      0.000E+00  
        VJC        7.535E-01      7.535E-01      7.535E-01  
        CJC        0.000E+00      0.000E+00      0.000E+00  
         RC        0.000E+00      4.000E+00      4.000E+00  
        RBM        0.000E+00      0.000E+00      0.000E+00  
         IS        7.350E-17      7.350E-17      7.350E-17  
        ISS        0.000E+00      0.000E+00      0.000E+00  
        VJS        7.535E-01      7.535E-01      7.535E-01  
        CJS        0.000E+00      0.000E+00      0.000E+00  
      GAMMA        1.000E-11      1.000E-11      1.000E-11  
        RCO        0.000E+00      0.000E+00      0.000E+00  
         VO        1.000E+01      1.000E+01      1.000E+01  

                  X_U3.PIX       X_U3.NIX       X_U3.POUT   

         BF        2.200E+02      2.200E+02      1.000E+02  
        ISE        0.000E+00      0.000E+00      0.000E+00  
        VJE        7.535E-01      7.535E-01      7.535E-01  
        CJE        0.000E+00      0.000E+00      0.000E+00  
         RE        0.000E+00      0.000E+00      0.000E+00  
         RB        0.000E+00      0.000E+00      0.000E+00  
         BR        1.000E+00      1.000E+00      1.000E+00  
        ISC        0.000E+00      0.000E+00      0.000E+00  
        VJC        7.535E-01      7.535E-01      7.535E-01  
        CJC        0.000E+00      0.000E+00      0.000E+00  
         RC        0.000E+00      0.000E+00      4.000E+00  
        RBM        0.000E+00      0.000E+00      0.000E+00  
         IS        7.350E-17      7.350E-17      7.350E-17  
        ISS        0.000E+00      0.000E+00      0.000E+00  
        VJS        7.535E-01      7.535E-01      7.535E-01  
        CJS        0.000E+00      0.000E+00      0.000E+00  
      GAMMA        1.000E-11      1.000E-11      1.000E-11  
        RCO        0.000E+00      0.000E+00      0.000E+00  
         VO        1.000E+01      1.000E+01      1.000E+01  

                  X_U3.NOUT                                 

         BF        1.000E+02  
        ISE        0.000E+00  
        VJE        7.535E-01  
        CJE        0.000E+00  
         RE        0.000E+00  
         RB        0.000E+00  
         BR        1.000E+00  
        ISC        0.000E+00  
        VJC        7.535E-01  
        CJC        0.000E+00  
         RC        4.000E+00  
        RBM        0.000E+00  
         IS        7.350E-17  
        ISS        0.000E+00  
        VJS        7.535E-01  
        CJS        0.000E+00  
      GAMMA        1.000E-11  
        RCO        0.000E+00  
         VO        1.000E+01  


 **** RESISTORS

                 R_R4 <R_R4>    R_R6 <R_R6>    R_R1 <R_R1>  

          R        1.000E+03      7.500E+02      7.300E+05  


                 R_R2 <R_R2>    R_R3 <R_R3>    R_R5 <R_R5>  

          R        7.300E+05      7.300E+05      3.300E+03  


                 R_R7 <R_R7>  R_Rref <R_Rref>  R_R8 <R_R8>  

          R        6.340E+03      3.650E+03      1.500E+03  


                 R_R9 <R_R9>  R_Rled <R_Rled> R_R10 <R_R10> 

          R        1.000E+04      4.000E+02      6.000E+03  


               R_Rref2 <R_Rref2>
                               R_R11 <R_R11>                

          R        4.000E+03      4.000E+02  



**** 06/02/24 13:27:58 ***** PSpice 23.1.0 (17 April 2024) **** ID# 0 ********

 ** Profile: "SCHEMATIC1-temp"  [ d:\faculta\anu ii\sem 2\cad\cdssetup\workspace\projects\final_version\final_version-PSpiceFiles\SCH


 ****     TEMPERATURE-ADJUSTED VALUES      TEMPERATURE =   30.000 DEG C


******************************************************************************




 **** DIODE MODEL PARAMETERS

                 LO_3336-TYP      X_U2.DX        X_U1.DX    

         IS        1.286E-21      1.575E-16      1.575E-16  
         VJ        9.973E-01      9.973E-01      9.973E-01  
        CJO        0.000E+00      0.000E+00      0.000E+00  
         RS        1.622E+00      5.000E+00      5.000E+00  
        IKF        7.140E-03      0.000E+00      0.000E+00  
         BV                   

                   X_U3.DX                                  

         IS        1.575E-16  
         VJ        9.973E-01  
        CJO        0.000E+00  
         RS        5.000E+00  
        IKF        0.000E+00  
         BV                   


 **** BJT MODEL PARAMETERS

                Q2N2222A/ZTX     X_U2.PIX       X_U2.NIX    

         BF        2.200E+02      2.200E+02      2.200E+02  
        ISE        1.035E-14      0.000E+00      0.000E+00  
        VJE        7.448E-01      7.448E-01      7.448E-01  
        CJE        2.708E-11      0.000E+00      0.000E+00  
         RE        2.200E-01      0.000E+00      0.000E+00  
         RB        1.300E-01      0.000E+00      0.000E+00  
         BR        4.000E+00      1.000E+00      1.000E+00  
        ISC        1.483E-11      0.000E+00      0.000E+00  
        VJC        4.003E-01      7.448E-01      7.448E-01  
        CJC        9.191E-12      0.000E+00      0.000E+00  
         RC        1.200E-01      0.000E+00      0.000E+00  
        RBM        1.300E-01      0.000E+00      0.000E+00  
         IS        4.823E-14      1.575E-16      1.575E-16  
        ISS        0.000E+00      0.000E+00      0.000E+00  
        VJS        7.448E-01      7.448E-01      7.448E-01  
        CJS        0.000E+00      0.000E+00      0.000E+00  
      GAMMA        1.000E-11      1.000E-11      1.000E-11  
        RCO        0.000E+00      0.000E+00      0.000E+00  
         VO        1.000E+01      1.000E+01      1.000E+01  

                  X_U2.POUT      X_U2.NOUT      X_U1.PIX    

         BF        1.000E+02      1.000E+02      2.200E+02  
        ISE        0.000E+00      0.000E+00      0.000E+00  
        VJE        7.448E-01      7.448E-01      7.448E-01  
        CJE        0.000E+00      0.000E+00      0.000E+00  
         RE        0.000E+00      0.000E+00      0.000E+00  
         RB        0.000E+00      0.000E+00      0.000E+00  
         BR        1.000E+00      1.000E+00      1.000E+00  
        ISC        0.000E+00      0.000E+00      0.000E+00  
        VJC        7.448E-01      7.448E-01      7.448E-01  
        CJC        0.000E+00      0.000E+00      0.000E+00  
         RC        4.000E+00      4.000E+00      0.000E+00  
        RBM        0.000E+00      0.000E+00      0.000E+00  
         IS        1.575E-16      1.575E-16      1.575E-16  
        ISS        0.000E+00      0.000E+00      0.000E+00  
        VJS        7.448E-01      7.448E-01      7.448E-01  
        CJS        0.000E+00      0.000E+00      0.000E+00  
      GAMMA        1.000E-11      1.000E-11      1.000E-11  
        RCO        0.000E+00      0.000E+00      0.000E+00  
         VO        1.000E+01      1.000E+01      1.000E+01  

                  X_U1.NIX       X_U1.POUT      X_U1.NOUT   

         BF        2.200E+02      1.000E+02      1.000E+02  
        ISE        0.000E+00      0.000E+00      0.000E+00  
        VJE        7.448E-01      7.448E-01      7.448E-01  
        CJE        0.000E+00      0.000E+00      0.000E+00  
         RE        0.000E+00      0.000E+00      0.000E+00  
         RB        0.000E+00      0.000E+00      0.000E+00  
         BR        1.000E+00      1.000E+00      1.000E+00  
        ISC        0.000E+00      0.000E+00      0.000E+00  
        VJC        7.448E-01      7.448E-01      7.448E-01  
        CJC        0.000E+00      0.000E+00      0.000E+00  
         RC        0.000E+00      4.000E+00      4.000E+00  
        RBM        0.000E+00      0.000E+00      0.000E+00  
         IS        1.575E-16      1.575E-16      1.575E-16  
        ISS        0.000E+00      0.000E+00      0.000E+00  
        VJS        7.448E-01      7.448E-01      7.448E-01  
        CJS        0.000E+00      0.000E+00      0.000E+00  
      GAMMA        1.000E-11      1.000E-11      1.000E-11  
        RCO        0.000E+00      0.000E+00      0.000E+00  
         VO        1.000E+01      1.000E+01      1.000E+01  

                  X_U3.PIX       X_U3.NIX       X_U3.POUT   

         BF        2.200E+02      2.200E+02      1.000E+02  
        ISE        0.000E+00      0.000E+00      0.000E+00  
        VJE        7.448E-01      7.448E-01      7.448E-01  
        CJE        0.000E+00      0.000E+00      0.000E+00  
         RE        0.000E+00      0.000E+00      0.000E+00  
         RB        0.000E+00      0.000E+00      0.000E+00  
         BR        1.000E+00      1.000E+00      1.000E+00  
        ISC        0.000E+00      0.000E+00      0.000E+00  
        VJC        7.448E-01      7.448E-01      7.448E-01  
        CJC        0.000E+00      0.000E+00      0.000E+00  
         RC        0.000E+00      0.000E+00      4.000E+00  
        RBM        0.000E+00      0.000E+00      0.000E+00  
         IS        1.575E-16      1.575E-16      1.575E-16  
        ISS        0.000E+00      0.000E+00      0.000E+00  
        VJS        7.448E-01      7.448E-01      7.448E-01  
        CJS        0.000E+00      0.000E+00      0.000E+00  
      GAMMA        1.000E-11      1.000E-11      1.000E-11  
        RCO        0.000E+00      0.000E+00      0.000E+00  
         VO        1.000E+01      1.000E+01      1.000E+01  

                  X_U3.NOUT                                 

         BF        1.000E+02  
        ISE        0.000E+00  
        VJE        7.448E-01  
        CJE        0.000E+00  
         RE        0.000E+00  
         RB        0.000E+00  
         BR        1.000E+00  
        ISC        0.000E+00  
        VJC        7.448E-01  
        CJC        0.000E+00  
         RC        4.000E+00  
        RBM        0.000E+00  
         IS        1.575E-16  
        ISS        0.000E+00  
        VJS        7.448E-01  
        CJS        0.000E+00  
      GAMMA        1.000E-11  
        RCO        0.000E+00  
         VO        1.000E+01  


 **** RESISTORS

                 R_R4 <R_R4>    R_R6 <R_R6>    R_R1 <R_R1>  

          R        1.000E+03      7.500E+02      7.300E+05  


                 R_R2 <R_R2>    R_R3 <R_R3>    R_R5 <R_R5>  

          R        7.300E+05      7.300E+05      3.300E+03  


                 R_R7 <R_R7>  R_Rref <R_Rref>  R_R8 <R_R8>  

          R        6.340E+03      3.650E+03      1.500E+03  


                 R_R9 <R_R9>  R_Rled <R_Rled> R_R10 <R_R10> 

          R        1.000E+04      4.000E+02      6.000E+03  


               R_Rref2 <R_Rref2>
                               R_R11 <R_R11>                

          R        4.000E+03      4.000E+02  



**** 06/02/24 13:27:58 ***** PSpice 23.1.0 (17 April 2024) **** ID# 0 ********

 ** Profile: "SCHEMATIC1-temp"  [ d:\faculta\anu ii\sem 2\cad\cdssetup\workspace\projects\final_version\final_version-PSpiceFiles\SCH


 ****     TEMPERATURE-ADJUSTED VALUES      TEMPERATURE =   35.000 DEG C


******************************************************************************




 **** DIODE MODEL PARAMETERS

                 LO_3336-TYP      X_U2.DX        X_U1.DX    

         IS        1.998E-21      3.297E-16      3.297E-16  
         VJ        9.927E-01      9.927E-01      9.927E-01  
        CJO        0.000E+00      0.000E+00      0.000E+00  
         RS        1.622E+00      5.000E+00      5.000E+00  
        IKF        7.140E-03      0.000E+00      0.000E+00  
         BV                   

                   X_U3.DX                                  

         IS        3.297E-16  
         VJ        9.927E-01  
        CJO        0.000E+00  
         RS        5.000E+00  
        IKF        0.000E+00  
         BV                   


 **** BJT MODEL PARAMETERS

                Q2N2222A/ZTX     X_U2.PIX       X_U2.NIX    

         BF        2.200E+02      2.200E+02      2.200E+02  
        ISE        1.748E-14      0.000E+00      0.000E+00  
        VJE        7.360E-01      7.360E-01      7.360E-01  
        CJE        2.720E-11      0.000E+00      0.000E+00  
         RE        2.200E-01      0.000E+00      0.000E+00  
         RB        1.300E-01      0.000E+00      0.000E+00  
         BR        4.000E+00      1.000E+00      1.000E+00  
        ISC        2.540E-11      0.000E+00      0.000E+00  
        VJC        3.858E-01      7.360E-01      7.360E-01  
        CJC        9.311E-12      0.000E+00      0.000E+00  
         RC        1.200E-01      0.000E+00      0.000E+00  
        RBM        1.300E-01      0.000E+00      0.000E+00  
         IS        1.009E-13      3.297E-16      3.297E-16  
        ISS        0.000E+00      0.000E+00      0.000E+00  
        VJS        7.360E-01      7.360E-01      7.360E-01  
        CJS        0.000E+00      0.000E+00      0.000E+00  
      GAMMA        1.000E-11      1.000E-11      1.000E-11  
        RCO        0.000E+00      0.000E+00      0.000E+00  
         VO        1.000E+01      1.000E+01      1.000E+01  

                  X_U2.POUT      X_U2.NOUT      X_U1.PIX    

         BF        1.000E+02      1.000E+02      2.200E+02  
        ISE        0.000E+00      0.000E+00      0.000E+00  
        VJE        7.360E-01      7.360E-01      7.360E-01  
        CJE        0.000E+00      0.000E+00      0.000E+00  
         RE        0.000E+00      0.000E+00      0.000E+00  
         RB        0.000E+00      0.000E+00      0.000E+00  
[...]

                  X_U2.POUT      X_U2.NOUT      X_U1.PIX    

         BF        1.000E+02      1.000E+02      2.200E+02  
        ISE        0.000E+00      0.000E+00      0.000E+00  
        VJE        7.272E-01      7.272E-01      7.272E-01  
        CJE        0.000E+00      0.000E+00      0.000E+00  
         RE        0.000E+00      0.000E+00      0.000E+00  
         RB        0.000E+00      0.000E+00      0.000E+00  
         BR        1.000E+00      1.000E+00      1.000E+00  
        ISC        0.000E+00      0.000E+00      0.000E+00  
        VJC        7.272E-01      7.272E-01      7.272E-01  
        CJC        0.000E+00      0.000E+00      0.000E+00  
         RC        4.000E+00      4.000E+00      0.000E+00  
        RBM        0.000E+00      0.000E+00      0.000E+00  
         IS        6.745E-16      6.745E-16      6.745E-16  
        ISS        0.000E+00      0.000E+00      0.000E+00  
        VJS        7.272E-01      7.272E-01      7.272E-01  
        CJS        0.000E+00      0.000E+00      0.000E+00  
      GAMMA        1.000E-11      1.000E-11      1.000E-11  
        RCO        0.000E+00      0.000E+00      0.000E+00  
         VO        1.000E+01      1.000E+01      1.000E+01  

                  X_U1.NIX       X_U1.POUT      X_U1.NOUT   

         BF        2.200E+02      1.000E+02      1.000E+02  
        ISE        0.000E+00      0.000E+00      0.000E+00  
        VJE        7.272E-01      7.272E-01      7.272E-01  
        CJE        0.000E+00      0.000E+00      0.000E+00  
         RE        0.000E+00      0.000E+00      0.000E+00  
         RB        0.000E+00      0.000E+00      0.000E+00  
         BR        1.000E+00      1.000E+00      1.000E+00  
        ISC        0.000E+00      0.000E+00      0.000E+00  
        VJC        7.272E-01      7.272E-01      7.272E-01  
        CJC        0.000E+00      0.000E+00      0.000E+00  
         RC        0.000E+00      4.000E+00      4.000E+00  
        RBM        0.000E+00      0.000E+00      0.000E+00  
         IS        6.745E-16      6.745E-16      6.745E-16  
        ISS        0.000E+00      0.000E+00      0.000E+00  
        VJS        7.272E-01      7.272E-01      7.272E-01  
        CJS        0.000E+00      0.000E+00      0.000E+00  
      GAMMA        1.000E-11      1.000E-11      1.000E-11  
        RCO        0.000E+00      0.000E+00      0.000E+00  
         VO        1.000E+01      1.000E+01      1.000E+01  

                  X_U3.PIX       X_U3.NIX       X_U3.POUT   

         BF        2.200E+02      2.200E+02      1.000E+02  
        ISE        0.000E+00      0.000E+00      0.000E+00  
        VJE        7.272E-01      7.272E-01      7.272E-01  
        CJE        0.000E+00      0.000E+00      0.000E+00  
         RE        0.000E+00      0.000E+00      0.000E+00  
         RB        0.000E+00      0.000E+00      0.000E+00  
         BR        1.000E+00      1.000E+00      1.000E+00  
        ISC        0.000E+00      0.000E+00      0.000E+00  
        VJC        7.272E-01      7.272E-01      7.272E-01  
        CJC        0.000E+00      0.000E+00      0.000E+00  
         RC        0.000E+00      0.000E+00      4.000E+00  
        RBM        0.000E+00      0.000E+00      0.000E+00  
         IS        6.745E-16      6.745E-16      6.745E-16  
        ISS        0.000E+00      0.000E+00      0.000E+00  
        VJS        7.272E-01      7.272E-01      7.272E-01  
        CJS        0.000E+00      0.000E+00      0.000E+00  
      GAMMA        1.000E-11      1.000E-11      1.000E-11  
        RCO        0.000E+00      0.000E+00      0.000E+00  
         VO        1.000E+01      1.000E+01      1.000E+01  

                  X_U3.NOUT                                 

         BF        1.000E+02  
        ISE        0.000E+00  
        VJE        7.272E-01  
        CJE        0.000E+00  
         RE        0.000E+00  
         RB        0.000E+00  
         BR        1.000E+00  
        ISC        0.000E+00  
        VJC        7.272E-01  
        CJC        0.000E+00  
         RC        4.000E+00  
        RBM        0.000E+00  
         IS        6.745E-16  
        ISS        0.000E+00  
        VJS        7.272E-01  
        CJS        0.000E+00  
      GAMMA        1.000E-11  
        RCO        0.000E+00  
         VO        1.000E+01  


 **** RESISTORS

                 R_R4 <R_R4>    R_R6 <R_R6>    R_R1 <R_R1>  

          R        1.000E+03      7.500E+02      7.300E+05  


                 R_R2 <R_R2>    R_R3 <R_R3>    R_R5 <R_R5>  

          R        7.300E+05      7.300E+05      3.300E+03  


                 R_R7 <R_R7>  R_Rref <R_Rref>  R_R8 <R_R8>  

          R        6.340E+03      3.650E+03      1.500E+03  


                 R_R9 <R_R9>  R_Rled <R_Rled> R_R10 <R_R10> 

          R        1.000E+04      4.000E+02      6.000E+03  


               R_Rref2 <R_Rref2>
                               R_R11 <R_R11>                

          R        4.000E+03      4.000E+02  



**** 06/02/24 13:27:58 ***** PSpice 23.1.0 (17 April 2024) **** ID# 0 ********

 ** Profile: "SCHEMATIC1-temp"  [ d:\faculta\anu ii\sem 2\cad\cdssetup\workspace\projects\final_version\final_version-PSpiceFiles\SCH


 ****     TEMPERATURE-ADJUSTED VALUES      TEMPERATURE =   45.000 DEG C


******************************************************************************




 **** DIODE MODEL PARAMETERS

                 LO_3336-TYP      X_U2.DX        X_U1.DX    

         IS        4.636E-21      1.350E-15      1.350E-15  
         VJ        9.834E-01      9.834E-01      9.834E-01  
        CJO        0.000E+00      0.000E+00      0.000E+00  
         RS        1.622E+00      5.000E+00      5.000E+00  
        IKF        7.140E-03      0.000E+00      0.000E+00  
         BV                   

                   X_U3.DX                                  

         IS        1.350E-15  
         VJ        9.834E-01  
        CJO        0.000E+00  
         RS        5.000E+00  
        IKF        0.000E+00  
         BV                   


 **** BJT MODEL PARAMETERS

                Q2N2222A/ZTX     X_U2.PIX       X_U2.NIX    

         BF        2.200E+02      2.200E+02      2.200E+02  
        ISE        4.751E-14      0.000E+00      0.000E+00  
        VJE        7.184E-01      7.184E-01      7.184E-01  
        CJE        2.745E-11      0.000E+00      0.000E+00  
         RE        2.200E-01      0.000E+00      0.000E+00  
         RB        1.300E-01      0.000E+00      0.000E+00  
         BR        4.000E+00      1.000E+00      1.000E+00  
        ISC        7.094E-11      0.000E+00      0.000E+00  
        VJC        3.568E-01      7.184E-01      7.184E-01  
        CJC        9.550E-12      0.000E+00      0.000E+00  
         RC        1.200E-01      0.000E+00      0.000E+00  
        RBM        1.300E-01      0.000E+00      0.000E+00  
         IS        4.133E-13      1.350E-15      1.350E-15  
        ISS        0.000E+00      0.000E+00      0.000E+00  
        VJS        7.184E-01      7.184E-01      7.184E-01  
        CJS        0.000E+00      0.000E+00      0.000E+00  
      GAMMA        1.000E-11      1.000E-11      1.000E-11  
        RCO        0.000E+00      0.000E+00      0.000E+00  
         VO        1.000E+01      1.000E+01      1.000E+01  

                  X_U2.POUT      X_U2.NOUT      X_U1.PIX    

         BF        1.000E+02      1.000E+02      2.200E+02  
        ISE        0.000E+00      0.000E+00      0.000E+00  
        VJE        7.184E-01      7.184E-01      7.184E-01  
        CJE        0.000E+00      0.000E+00      0.000E+00  
         RE        0.000E+00      0.000E+00      0.000E+00  
         RB        0.000E+00      0.000E+00      0.000E+00  
         BR        1.000E+00      1.000E+00      1.000E+00  
        ISC        0.000E+00      0.000E+00      0.000E+00  
        VJC        7.184E-01      7.184E-01      7.184E-01  
        CJC        0.000E+00      0.000E+00      0.000E+00  
         RC        4.000E+00      4.000E+00      0.000E+00  
        RBM        0.000E+00      0.000E+00      0.000E+00  
         IS        1.350E-15      1.350E-15      1.350E-15  
        ISS        0.000E+00      0.000E+00      0.000E+00  
        VJS        7.184E-01      7.184E-01      7.184E-01  
        CJS        0.000E+00      0.000E+00      0.000E+00  
      GAMMA        1.000E-11      1.000E-11      1.000E-11  
        RCO        0.000E+00      0.000E+00      0.000E+00  
         VO        1.000E+01      1.000E+01      1.000E+01  

                  X_U1.NIX       X_U1.POUT      X_U1.NOUT   

         BF        2.200E+02      1.000E+02      1.000E+02  
        ISE        0.000E+00      0.000E+00      0.000E+00  
        VJE        7.184E-01      7.184E-01      7.184E-01  
        CJE        0.000E+00      0.000E+00      0.000E+00  
         RE        0.000E+00      0.000E+00      0.000E+00  
         RB        0.000E+00      0.000E+00      0.000E+00  
         BR        1.000E+00      1.000E+00      1.000E+00  
        ISC        0.000E+00      0.000E+00      0.000E+00  
        VJC        7.184E-01      7.184E-01      7.184E-01  
        CJC        0.000E+00      0.000E+00      0.000E+00  
         RC        0.000E+00      4.000E+00      4.000E+00  
        RBM        0.000E+00      0.000E+00      0.000E+00  
         IS        1.350E-15      1.350E-15      1.350E-15  
        ISS        0.000E+00      0.000E+00      0.000E+00  
        VJS        7.184E-01      7.184E-01      7.184E-01  
        CJS        0.000E+00      0.000E+00      0.000E+00  
      GAMMA        1.000E-11      1.000E-11      1.000E-11  
        RCO        0.000E+00      0.000E+00      0.000E+00  
         VO        1.000E+01      1.000E+01      1.000E+01  

                  X_U3.PIX       X_U3.NIX       X_U3.POUT   

         BF        2.200E+02      2.200E+02      1.000E+02  
        ISE        0.000E+00      0.000E+00      0.000E+00  
        VJE        7.184E-01      7.184E-01      7.184E-01  
        CJE        0.000E+00      0.000E+00      0.000E+00  
         RE        0.000E+00      0.000E+00      0.000E+00  
         RB        0.000E+00      0.000E+00      0.000E+00  
         BR        1.000E+00      1.000E+00      1.000E+00  
        ISC        0.000E+00      0.000E+00      0.000E+00  
        VJC        7.184E-01      7.184E-01      7.184E-01  
        CJC        0.000E+00      0.000E+00      0.000E+00  
         RC        0.000E+00      0.000E+00      4.000E+00  
        RBM        0.000E+00      0.000E+00      0.000E+00  
         IS        1.350E-15      1.350E-15      1.350E-15  
        ISS        0.000E+00      0.000E+00      0.000E+00  
        VJS        7.184E-01      7.184E-01      7.184E-01  
        CJS        0.000E+00      0.000E+00      0.000E+00  
      GAMMA        1.000E-11      1.000E-11      1.000E-11  
        RCO        0.000E+00      0.000E+00      0.000E+00  
         VO        1.000E+01      1.000E+01      1.000E+01  

                  X_U3.NOUT                                 

         BF        1.000E+02  
        ISE        0.000E+00  
        VJE        7.184E-01  
        CJE        0.000E+00  
         RE        0.000E+00  
         RB        0.000E+00  
         BR        1.000E+00  
        ISC        0.000E+00  
        VJC        7.184E-01  
        CJC        0.000E+00  
         RC        4.000E+00  
        RBM        0.000E+00  
         IS        1.350E-15  
        ISS        0.000E+00  
        VJS        7.184E-01  
        CJS        0.000E+00  
      GAMMA        1.000E-11  
        RCO        0.000E+00  
         VO        1.000E+01  


 **** RESISTORS

                 R_R4 <R_R4>    R_R6 <R_R6>    R_R1 <R_R1>  

          R        1.000E+03      7.500E+02      7.300E+05  


                 R_R2 <R_R2>    R_R3 <R_R3>    R_R5 <R_R5>  

          R        7.300E+05      7.300E+05      3.300E+03  


                 R_R7 <R_R7>  R_Rref <R_Rref>  R_R8 <R_R8>  

          R        6.340E+03      3.650E+03      1.500E+03  


                 R_R9 <R_R9>  R_Rled <R_Rled> R_R10 <R_R10> 

          R        1.000E+04      4.000E+02      6.000E+03  


               R_Rref2 <R_Rref2>
                               R_R11 <R_R11>                

          R        4.000E+03      4.000E+02  



**** 06/02/24 13:27:58 ***** PSpice 23.1.0 (17 April 2024) **** ID# 0 ********

 ** Profile: "SCHEMATIC1-temp"  [ d:\faculta\anu ii\sem 2\cad\cdssetup\workspace\projects\final_version\final_version-PSpiceFiles\SCH


 ****     TEMPERATURE-ADJUSTED VALUES      TEMPERATURE =   50.000 DEG C


******************************************************************************




 **** DIODE MODEL PARAMETERS

                 LO_3336-TYP      X_U2.DX        X_U1.DX    

         IS        6.930E-21      2.647E-15      2.647E-15  
         VJ        9.787E-01      9.787E-01      9.787E-01  
        CJO        0.000E+00      0.000E+00      0.000E+00  
         RS        1.622E+00      5.000E+00      5.000E+00  
        IKF        7.140E-03      0.000E+00      0.000E+00  
         BV                   

                   X_U3.DX                                  

         IS        2.647E-15  
         VJ        9.787E-01  
        CJO        0.000E+00  
         RS        5.000E+00  
        IKF        0.000E+00  
         BV                   


 **** BJT MODEL PARAMETERS

                Q2N2222A/ZTX     X_U2.PIX       X_U2.NIX    

         BF        2.200E+02      2.200E+02      2.200E+02  
        ISE        7.658E-14      0.000E+00      0.000E+00  
        VJE        7.095E-01      7.095E-01      7.095E-01  
        CJE        2.757E-11      0.000E+00      0.000E+00  
         RE        2.200E-01      0.000E+00      0.000E+00  
         RB        1.300E-01      0.000E+00      0.000E+00  
         BR        4.000E+00      1.000E+00      1.000E+00  
        ISC        1.158E-10      0.000E+00      0.000E+00  
        VJC        3.423E-01      7.095E-01      7.095E-01  
        CJC        9.670E-12      0.000E+00      0.000E+00  
         RC        1.200E-01      0.000E+00      0.000E+00  
        RBM        1.300E-01      0.000E+00      0.000E+00  
         IS        8.103E-13      2.647E-15      2.647E-15  
        ISS        0.000E+00      0.000E+00      0.000E+00  
        VJS        7.095E-01      7.095E-01      7.095E-01  
        CJS        0.000E+00      0.000E+00      0.000E+00  
      GAMMA        1.000E-11      1.000E-11      1.000E-11  
        RCO        0.000E+00      0.000E+00      0.000E+00  
         VO        1.000E+01      1.000E+01      1.000E+01  

                  X_U2.POUT      X_U2.NOUT      X_U1.PIX    

         BF        1.000E+02      1.000E+02      2.200E+02  
        ISE        0.000E+00      0.000E+00      0.000E+00  
        VJE        7.095E-01      7.095E-01      7.095E-01  
        CJE        0.000E+00      0.000E+00      0.000E+00  
         RE        0.000E+00      0.000E+00      0.000E+00  
         RB        0.000E+00      0.000E+00      0.000E+00  
         BR        1.000E+00      1.000E+00      1.000E+00  
        ISC        0.000E+00      0.000E+00      0.000E+00  
        VJC        7.095E-01      7.095E-01      7.095E-01  
        CJC        0.000E+00      0.000E+00      0.000E+00  
         RC        4.000E+00      4.000E+00      0.000E+00  
        RBM        0.000E+00      0.000E+00      0.000E+00  
         IS        2.647E-15      2.647E-15      2.647E-15  
        ISS        0.000E+00      0.000E+00      0.000E+00  
        VJS        7.095E-01      7.095E-01      7.095E-01  
        CJS        0.000E+00      0.000E+00      0.000E+00  
      GAMMA        1.000E-11      1.000E-11      1.000E-11  
        RCO        0.000E+00      0.000E+00      0.000E+00  
         VO        1.000E+01      1.000E+01      1.000E+01  

                  X_U1.NIX       X_U1.POUT      X_U1.NOUT   

         BF        2.200E+02      1.000E+02      1.000E+02  
        ISE        0.000E+00      0.000E+00      0.000E+00  
        VJE        7.095E-01      7.095E-01      7.095E-01  
        CJE        0.000E+00      0.000E+00      0.000E+00  
         RE        0.000E+00      0.000E+00      0.000E+00  
         RB        0.000E+00      0.000E+00      0.000E+00  
         BR        1.000E+00      1.000E+00      1.000E+00  
        ISC        0.000E+00      0.000E+00      0.000E+00  
        VJC        7.095E-01      7.095E-01      7.095E-01  
        CJC        0.000E+00      0.000E+00      0.000E+00  
         RC        0.000E+00      4.000E+00      4.000E+00  
        RBM        0.000E+00      0.000E+00      0.000E+00  
         IS        2.647E-15      2.647E-15      2.647E-15  
        ISS        0.000E+00      0.000E+00      0.000E+00  
        VJS        7.095E-01      7.095E-01      7.095E-01  
        CJS        0.000E+00      0.000E+00      0.000E+00  
      GAMMA        1.000E-11      1.000E-11      1.000E-11  
        RCO        0.000E+00      0.000E+00      0.000E+00  
         VO        1.000E+01      1.000E+01      1.000E+01  

                  X_U3.PIX       X_U3.NIX       X_U3.POUT   

         BF        2.200E+02      2.200E+02      1.000E+02  
        ISE        0.000E+00      0.000E+00      0.000E+00  
        VJE        7.095E-01      7.095E-01      7.095E-01  
        CJE        0.000E+00      0.000E+00      0.000E+00  
         RE        0.000E+00      0.000E+00      0.000E+00  
         RB        0.000E+00      0.000E+00      0.000E+00  
         BR        1.000E+00      1.000E+00      1.000E+00  
        ISC        0.000E+00      0.000E+00      0.000E+00  
        VJC        7.095E-01      7.095E-01      7.095E-01  
        CJC        0.000E+00      0.000E+00      0.000E+00  
         RC        0.000E+00      0.000E+00      4.000E+00  
        RBM        0.000E+00      0.000E+00      0.000E+00  
         IS        2.647E-15      2.647E-15      2.647E-15  
        ISS        0.000E+00      0.000E+00      0.000E+00  
        VJS        7.095E-01      7.095E-01      7.095E-01  
        CJS        0.000E+00      0.000E+00      0.000E+00  
      GAMMA        1.000E-11      1.000E-11      1.000E-11  
        RCO        0.000E+00      0.000E+00      0.000E+00  
         VO        1.000E+01      1.000E+01      1.000E+01  

                  X_U3.NOUT                                 

         BF        1.000E+02  
        ISE        0.000E+00  
        VJE        7.095E-01  
        CJE        0.000E+00  
         RE        0.000E+00  
         RB        0.000E+00  
         BR        1.000E+00  
        ISC        0.000E+00  
        VJC        7.095E-01  
        CJC        0.000E+00  
         RC        4.000E+00  
        RBM        0.000E+00  
         IS        2.647E-15  
        ISS        0.000E+00  
        VJS        7.095E-01  
        CJS        0.000E+00  
      GAMMA        1.000E-11  
        RCO        0.000E+00  
         VO        1.000E+01  


 **** RESISTORS

                 R_R4 <R_R4>    R_R6 <R_R6>    R_R1 <R_R1>  

          R        1.000E+03      7.500E+02      7.300E+05  


                 R_R2 <R_R2>    R_R3 <R_R3>    R_R5 <R_R5>  

          R        7.300E+05      7.300E+05      3.300E+03  


                 R_R7 <R_R7>  R_Rref <R_Rref>  R_R8 <R_R8>  

          R        6.340E+03      3.650E+03      1.500E+03  


                 R_R9 <R_R9>  R_Rled <R_Rled> R_R10 <R_R10> 

          R        1.000E+04      4.000E+02      6.000E+03  


               R_Rref2 <R_Rref2>
                               R_R11 <R_R11>                

          R        4.000E+03      4.000E+02  




          JOB CONCLUDED

**** 06/02/24 13:27:58 ***** PSpice 23.1.0 (17 April 2024) **** ID# 0 ********

 ** Profile: "SCHEMATIC1-temp"  [ d:\faculta\anu ii\sem 2\cad\cdssetup\workspace\projects\final_version\final_version-PSpiceFiles\SCH


 ****     JOB STATISTICS SUMMARY


******************************************************************************



  Total job time (using Solver 1)   =         .94
